%chk=cyclohexyl-diBIP-TS2.chk
%mem=10GB
%nprocshared=16
#p opt=(tight,ts,calcfc,noeigentest) freq=internalmodes
b3lyp/6-31g(d,p) scrf=(cpcm,solvent=dichloromethane,read) nosymm
empiricaldispersion=gd3bj int=(grid=ultrafine)

cyclohexylimine diBIP oxidized, second transition state optimization

1 2
 C                  1.44759500    1.29333700    0.69755600
 C                  0.12572600    1.77741900    0.78783500
 C                 -0.12382200    3.07113200    1.25857700
 C                  0.97641100    3.84043400    1.62736700
 C                  2.29031500    3.34459500    1.53918700
 C                  2.56410800    2.05603100    1.07199200
 C                  0.05059300   -0.26153600   -0.02572900
 H                 -1.13340600    3.45726800    1.32331000
 H                  0.82107200    4.84742300    1.99458000
 H                  3.12005100    3.97180400    1.84591600
 C                 -1.95470700   -1.43367000   -0.64875900
 C                 -2.71892100   -2.49629100   -1.15008000
 C                 -2.09712900   -3.66309200   -1.60108300
 C                 -0.70392300   -3.69987200   -1.51896100
 C                  0.06424300   -2.63075600   -1.01474100
 C                 -0.55367300   -1.46387800   -0.56469300
 C                 -4.04017200   -0.80007700   -0.52738800
 H                 -2.66212600   -4.49891200   -1.99230300
 H                 -0.18590900   -4.58951100   -1.85475500
 H                  1.14254100   -2.72556700   -0.97572800
 N                 -0.72054100    0.78040700    0.33240600
 C                 -6.54619200   -0.60114200   -0.64984700
 C                 -5.24151900   -0.03538100   -0.28785200
 C                 -5.16402300    1.23106600    0.26799200
 C                 -6.31804300    2.00469900    0.48816300
 C                 -7.58402300    1.47323600    0.13795100
 C                 -7.72968700    0.22368500   -0.41449000
 H                 -4.19676100    1.63988600    0.53607700
 H                 -8.46631300    2.08089000    0.30978900
 C                 -6.22483300    3.36236700    1.11082600
 C                 -9.06224400   -0.35038800   -0.77136700
 O                 -6.66225400   -1.74671200   -1.15358100
 N                 -2.78013900   -0.40388000   -0.27204200
 N                 -4.02496500   -2.05560300   -1.05418600
 N                  1.36066100    0.01599800    0.18667100
 H                  2.18681600   -0.55173800    0.01958500
 C                  3.92050300    1.51922500    0.97921500
 H                  4.73110000    2.17320700    1.32226600
 N                  4.14297700    0.34147100    0.52999000
 C                  5.52198600   -0.12474100    0.47877900
 C                  5.65566400   -1.40349400    1.31897200
 C                  5.91488900   -0.39504500   -0.98090900
 H                  6.20211400    0.63919700    0.88859500
 C                  7.06847000   -1.98894400    1.22392200
 H                  4.92581700   -2.13394000    0.94949300
 H                  5.39512800   -1.18319600    2.35866000
 C                  7.32770900   -0.98075500   -1.07872700
 H                  5.18915600   -1.09903900   -1.40635400
 H                  5.83630800    0.53322600   -1.55494000
 C                  7.46633900   -2.25150900   -0.23293400
 H                  7.12778700   -2.91088300    1.81063200
 H                  7.78224300   -1.28504000    1.66925700
 H                  7.56948700   -1.18748100   -2.12556700
 H                  8.05144800   -0.23511900   -0.72690900
 H                  8.49226300   -2.62931100   -0.28265500
 H                  6.81810100   -3.03513200   -0.64501400
 H                 -4.89949400   -2.50571900   -1.31890500
 H                 -2.01341100    0.48329000    0.13485100
 C                 -7.15367889    4.35901290    0.39281328
 H                 -8.16557687    4.18330151    0.69295987
 H                 -6.87313867    5.35846592    0.65221809
 H                 -7.06768778    4.22774573   -0.66561690
 C                 -4.78254695    3.90166675    1.08702019
 H                 -4.17387698    3.32154959    1.74874895
 H                 -4.39290733    3.83421907    0.09277084
 H                 -4.77874912    4.92393975    1.40300041
 C                 -6.68471252    3.30068352    2.57926258
 H                 -6.49225774    4.24056301    3.05306392
 H                 -7.73327326    3.09077233    2.61610892
 H                 -6.14813306    2.52785721    3.08889183
 C                -10.16787232    0.71452086   -0.64826074
 H                -10.25142311    1.02560539    0.37210472
 H                 -9.92067912    1.55756309   -1.25905965
 H                -11.09971073    0.30029795   -0.97229247
 C                 -9.05010590   -0.91360786   -2.20462764
 H                 -8.33769067   -0.37466015   -2.79360974
 H                 -8.78115733   -1.94893203   -2.17873320
 H                -10.02303612   -0.80855930   -2.63737650
 C                 -9.40982958   -1.52763988    0.15861272
 H                -10.47284467   -1.60727281    0.25111952
 H                 -9.01867007   -2.43465489   -0.25274844
 H                 -8.97947814   -1.35895229    1.12362160

radii=bondi
dis
rep
cav











