%chk=cyclohexyl-diBIP-TS2.chk
%mem=10GB
%nprocshared=16
#p opt=(readfc,tight,ts,recalcfc=6,noeigentest) freq=internalmodes
b3lyp/6-31g(d,p) scrf=(cpcm,solvent=dichloromethane,read) nosymm
guess=read empiricaldispersion=gd3bj int=grid=superfinegrid

cyclohexylimine diBIP oxidized, second transition state optimization

1 2
 C                  1.39980000    0.97108100    0.05887100
 C                  0.12065200    1.56337200    0.01495300
 C                 -0.01085000    2.95196900   -0.09784700
 C                  1.16104400    3.70007400   -0.17326400
 C                  2.43186400    3.09748300   -0.12925200
 C                  2.58833200    1.71276900   -0.01338900
 C                 -0.13978200   -0.61159100    0.18194200
 H                 -0.98639000    3.42079000   -0.12760300
 H                  1.09428700    4.77731200   -0.26560900
 H                  3.31739600    3.72008300   -0.18773200
 C                 -2.25289200   -1.76058500    0.19851500
 C                 -3.11274000   -2.86705900    0.21828700
 C                 -2.59574800   -4.16130100    0.31342200
 C                 -1.20603700   -4.27690000    0.37959500
 C                 -0.34084600   -3.16437800    0.34730500
 C                 -0.85444800   -1.87040300    0.25436600
 C                 -4.28105100   -0.96339500    0.07460700
 H                 -3.23573200   -5.03316200    0.33352700
 H                 -0.77032000   -5.26549000    0.45503600
 H                  0.72952600   -3.32202000    0.39824000
 N                 -0.81726600    0.54771700    0.09951000
 C                 -6.76911300   -0.62340200   -0.08698400
 C                 -5.41413800   -0.07102900   -0.00050800
 C                 -5.22189300    1.29965000    0.01440100
 C                 -6.30739300    2.19029600   -0.05754700
 C                 -7.62046200    1.67092200   -0.17546100
 C                 -7.88021000    0.32118200   -0.19028800
 H                 -4.21656300    1.69744500    0.08294500
 H                 -8.44573100    2.37005800   -0.25724100
 C                 -6.09017900    3.66802600    0.00619000
 H                 -5.02926600    3.91523700    0.01475700
 H                 -6.57114100    4.17071200   -0.83911700
 H                 -6.55455500    4.07207700    0.91147300
 C                 -9.26160300   -0.24188800   -0.28284400
 H                 -9.65334000   -0.40593400    0.72805500
 H                 -9.93147200    0.45183400   -0.79070300
 H                 -9.26647200   -1.20898900   -0.78724800
 O                 -6.98638800   -1.86129700   -0.07427600
 N                 -2.98549900   -0.60241900    0.11385600
 N                 -4.37894800   -2.31975100    0.13552400
 N                  1.19661700   -0.38777200    0.16651300
 H                  1.97500600   -1.04000100    0.20478100
 C                  3.89857300    1.06559600    0.02813200
 H                  4.76230200    1.73626600   -0.01622100
 N                  4.00623500   -0.20754500    0.11791600
 C                  5.35573400   -0.78997900    0.16331000
 C                  6.12044000   -0.59645700   -1.15759500
 C                  6.18328800   -0.27316800    1.35220600
 H                  5.21037500   -1.86746200    0.30189200
 C                  7.48428500   -1.29100800   -1.09698400
 H                  6.26199800    0.47621900   -1.33772400
 H                  5.52035100   -0.98613600   -1.98489600
 C                  7.54809800   -0.96424400    1.41172700
 H                  6.32535300    0.80876200    1.24269700
 H                  5.62116000   -0.42772900    2.27752900
 C                  8.31312300   -0.79578500    0.09377100
 H                  8.02704900   -1.12865300   -2.03246400
 H                  7.33277800   -2.37396500   -1.00531800
 H                  8.13358800   -0.56542200    2.24565400
 H                  7.40081200   -2.03323600    1.61091900
 H                  9.26669500   -1.33076100    0.14043300
 H                  8.55062800    0.26589700   -0.05111700
 H                 -5.29241400   -2.76630000    0.07869500
 H                 -2.22291177    0.21591251    0.08681053

radii=bondi
dis
rep
cav









