%chk=cyclohexyl-diBIP-E0PT.chk
%mem=10GB
%nprocshared=16
#p opt=tight freq=internalmodes b3lyp/6-31g(d,p)
scrf=(cpcm,solvent=dichloromethane,read) nosymm empiricaldispersion=gd3bj
int=grid=ultrafine 

cyclohexylimine diBIP oxidized, no protons transferred optimization

1 2
 C                  1.61432100    1.14308000    0.18717200
 C                  0.39910000    1.86476700    0.18099000
 C                  0.41940600    3.26306100    0.08961300
 C                  1.65894100    3.89008500   -0.00618800
 C                  2.85832700    3.15602200   -0.00775100
 C                  2.87154000    1.75986600    0.09116100
 C                 -0.11164600   -0.23275300    0.32080900
 H                 -0.50225100    3.83204600    0.08851000
 H                  1.70552400    4.96974900   -0.08261500
 H                  3.80373000    3.68164100   -0.08741000
 C                 -2.29313600   -1.38265200    0.33178300
 C                 -3.13331800   -2.52941100    0.35669500
 C                 -2.57102000   -3.81071500    0.47269200
 C                 -1.18925200   -3.88953500    0.55404600
 C                 -0.36170900   -2.74313700    0.51461100
 C                 -0.88955800   -1.45782600    0.39770100
 C                 -4.40667200   -0.77344400    0.17120800
 H                 -3.19593800   -4.69369500    0.49494800
 H                 -0.71876100   -4.86049400    0.64660600
 H                  0.71194500   -2.87413700    0.57998400
 N                 -0.66266300    0.97911700    0.26432400
 C                 -6.86124300   -0.70539500   -0.12573800
 C                 -5.60202300    0.00866800    0.02272700
 C                 -5.61155800    1.39915700   -0.00204500
 C                 -6.80580200    2.10310300   -0.18399400
 C                 -8.02618100    1.38229700   -0.35635200
 C                 -8.08754900    0.01246200   -0.33018900
 H                 -4.68656000    1.94857100    0.12367900
 H                 -8.93842600    1.94767300   -0.50962800
 C                 -6.83053200    3.59539800   -0.21404400
 H                 -5.85512000    4.02382000    0.01342200
 H                 -7.14433700    3.94380200   -1.20440800
 H                 -7.56734100    3.98046700    0.49768700
 C                 -9.35937200   -0.75785600   -0.50178900
 H                 -9.26103400   -1.49710100   -1.30063400
 H                 -9.60475100   -1.30600100    0.41274900
 H                -10.18295000   -0.08489400   -0.73720500
 O                 -6.91370300   -2.00601400   -0.08181900
 H                 -5.94682900   -2.37034300    0.06878900
 N                 -3.12365900   -0.30355600    0.22170100
 N                 -4.43561400   -2.11373900    0.25196600
 H                 -2.75697000    0.64521300    0.17512700
 N                  1.25879000   -0.17930100    0.28119400
 H                  1.94692000   -0.92372100    0.28661100
 C                  4.11259700    0.99258100    0.08805800
 H                  5.03130800    1.58095300   -0.01129600
 N                  4.11920900   -0.28569600    0.19074900
 C                  5.43282500   -0.95326600    0.15930000
 C                  6.14257100   -0.74628100   -1.18922500
 C                  6.34018100   -0.51834100    1.32278200
 H                  5.23618300   -2.02525600    0.27459700
 C                  7.49361000   -1.46785000   -1.22946800
 H                  6.29851500    0.32929700   -1.33615700
 H                  5.49268400   -1.09087800   -1.99961400
 C                  7.68992700   -1.24301700    1.27872600
 H                  6.50706700    0.56279600    1.25415400
 H                  5.82962700   -0.70640900    2.27234800
 C                  8.39346900   -1.03513700   -0.06693900
 H                  7.98610400   -1.27505100   -2.18792700
 H                  7.32746200   -2.55070200   -1.16964900
 H                  8.32232700   -0.89353700    2.10098200
 H                  7.52881100   -2.31690200    1.43772000
 H                  9.33686400   -1.58924400   -0.09136200
 H                  8.64379200    0.02708800   -0.18232700

radii=bondi
dis
rep
cav

