%chk=amide-monoBIP-E2PTz.chk
%mem=10GB
%nprocshared=16
#p opt=tight freq=internalmodes b3lyp/6-31g(d,p)
scrf=(cpcm,solvent=dichloromethane,read) nosymm empiricaldispersion=gd3bj
int=grid=ultrafine

Simple amide-monoBIP E2PT optimization, final proton on amide nitrogen

1 2
 C                 -0.46042800    2.73552400    0.44632300
 C                 -1.86938100    2.86097700    0.31911600
 C                 -2.45922900    4.12806400    0.21212200
 C                 -1.61182500    5.22639600    0.23977500
 C                 -0.21295200    5.08782500    0.36665600
 C                  0.40347500    3.84109100    0.47083900
 C                 -1.40216200    0.73696200    0.43936800
 H                 -3.53118100    4.23900800    0.11128100
 H                 -2.02798000    6.22321200    0.16284600
 H                  0.38515000    5.99074600    0.38624100
 N                 -2.41829100    1.60055700    0.32007400
 C                 -2.98181800   -1.17836100    0.35049200
 C                 -1.61014700   -0.69134700    0.45640000
 C                 -0.57508200   -1.60079700    0.54441400
 C                 -0.82509600   -2.98620400    0.53630800
 C                 -2.16794500   -3.43646800    0.44222900
 C                 -3.25664300   -2.59666100    0.35290000
 H                  0.44528600   -1.24765700    0.61456000
 H                 -2.34014700   -4.49989200    0.44020900
 C                  0.34458400   -3.95343600    0.60054000
 C                 -4.68748900   -3.12415300    0.25374400
 O                 -3.96411100   -0.33474200    0.24370900
 N                 -0.20671400    1.39093100    0.52119300
 C                  1.86855900    3.58919000    0.59276700
 C                  1.23136300   -3.71279200   -0.64445600
 H                  1.59860200   -2.68538700   -0.68098800
 H                  2.09334100   -4.38335500   -0.60485800
 H                  0.67709100   -3.91621000   -1.56350000
 C                  1.17192100   -3.66552900    1.87406900
 H                  0.57310500   -3.82568800    2.77331700
 H                  2.02653500   -4.34576800    1.90306700
 H                  1.55378900   -2.64293200    1.88895600
 C                 -0.09979100   -5.42172600    0.62071300
 H                 -0.71756100   -5.64562900    1.49408400
 H                 -0.65775300   -5.68883700   -0.28028500
 H                  0.78520600   -6.05917300    0.66566000
 C                 -5.31826300   -2.68133500   -1.08627000
 H                 -6.32749900   -3.09450000   -1.15550700
 H                 -5.38528000   -1.59744000   -1.16895600
 H                 -4.73622800   -3.06142100   -1.92932200
 C                 -5.52563500   -2.59131000    1.43860000
 H                 -5.61519700   -1.50634600    1.41633200
 H                 -6.52849900   -3.02214600    1.38674800
 H                 -5.07546900   -2.88519500    2.38989800
 C                 -4.71416400   -4.66019700    0.30564200
 H                 -4.15920000   -5.10409900   -0.52484000
 H                 -4.29883500   -5.03995400    1.24253500
 H                 -5.75016000   -4.99681800    0.23543800
 O                  2.29259300    2.42583200    0.70211400
 N                  2.69304500    4.65334600    0.58715200
 H                  2.35968467    5.32983968   -0.06952691
 H                  3.61306385    4.36083647    0.32637720
 H                 -3.38916562    1.37271703    0.24596985
 H                  2.71884380    5.05985451    1.50043468

radii=bondi
dis
rep
cav








