%chk=cyclohexyl-diBIP-TS1.chk
%mem=10GB
%nprocshared=16
#p opt=(tight,ts,calcfc,noeigentest) freq=internalmodes
b3lyp/6-31g(d,p) scrf=(cpcm,solvent=dichloromethane,read) nosymm
empiricaldispersion=gd3bj int=grid=ultrafine

cyclohexylimine diBIP oxidized, first proton transition state optimization

1 2
C     1.633350     1.237324     0.230952
C     0.406923     1.935607     0.153662
C     0.410015     3.331648     0.028175
C     1.643007     3.977431    -0.017863
C     2.853713     3.265510     0.064979
C     2.884154     1.872232     0.188737
C    -0.070738    -0.167397     0.320057
H    -0.519289     3.884904    -0.033198
H     1.675999     5.056040    -0.116162
H     3.792957     3.806505     0.028454
C    -2.225057    -1.371225     0.317510
C    -3.032496    -2.541774     0.333197
C    -2.437321    -3.807552     0.455814
C    -1.055336    -3.848074     0.556488
C    -0.260269    -2.679064     0.524139
C    -0.821027    -1.409006     0.395049
C    -4.355401    -0.820855     0.159684
H    -3.038438    -4.707084     0.472487
H    -0.558507    -4.804615     0.660173
H     0.815302    -2.780908     0.605495
N    -0.642341     1.031878     0.215079
C    -6.818189    -0.801049    -0.131523
C    -5.570838    -0.065621     0.042393
C    -5.591904     1.324373     0.093181
C    -6.794338     2.020378    -0.022479
C    -7.999393     1.276023    -0.223698
C    -8.062875    -0.094370    -0.291251
H    -4.663763     1.859462     0.237811
H    -8.915616     1.838256    -0.324427
C    -6.884482     3.533811     0.078438
C    -9.374041    -0.847392    -0.524402
O    -6.809974    -2.104073    -0.148693
N    -3.085250    -0.314984     0.213861
N    -4.344701    -2.162023     0.225935
H    -2.747940     0.644666     0.170052
N     1.298293    -0.088793     0.335388
H     2.003202    -0.816744     0.379284
C     4.133165     1.119539     0.269368
H     5.048994     1.717797     0.241110
N     4.135820    -0.158973     0.359694
C     5.424435    -0.863615     0.377316
C     5.946202    -1.022732    -1.061527
C     6.506836    -0.244721     1.275620
H     5.212836    -1.867233     0.765555
C     7.230346    -1.857912    -1.100025
H     6.140961    -0.020578    -1.463650
H     5.167878    -1.472312    -1.685583
C     7.775495    -1.106289     1.253034
H     6.756916     0.761521     0.922219
H     6.122205    -0.142757     2.294837
C     8.305465    -1.275770    -0.174752
H     7.602859    -1.919624    -2.127163
H     7.000442    -2.883372    -0.785081
H     8.541035    -0.659890     1.895082
H     7.547207    -2.093592     1.673890
H     9.192711    -1.916150    -0.176262
H     8.617414    -0.296698    -0.559571
H    -5.832357    -2.441015     0.005972
C    -7.518559     4.092689    -1.215712
H    -8.514107     3.682119    -1.394727
H    -7.612864     5.177736    -1.125410
H    -6.894369     3.870007    -2.083813
C    -5.515127     4.193286     0.283514
H    -5.040489     3.860932     1.210223
H    -4.836801     3.984625    -0.547660
H    -5.646141     5.275230     0.346793
C    -7.790514     3.884360     1.281686
H    -7.889013     4.970237     1.352661
H    -8.790717     3.460185     1.175181
H    -7.354794     3.516372     2.213209
C   -10.552531     0.126081    -0.675724
H   -11.459093    -0.447670    -0.878270
H   -10.721103     0.704781     0.236525
H   -10.404472     0.820826    -1.506421
C    -9.268203    -1.674182    -1.825414
H    -9.063597    -1.023420    -2.679148
H    -8.482614    -2.426570    -1.764565
H   -10.219341    -2.181711    -2.006257
C    -9.675963    -1.775317     0.673622
H    -9.763093    -1.195902     1.596004
H   -10.629077    -2.280996     0.498118
H    -8.904086    -2.531495     0.807488

radii=bondi
dis
rep
cav







