%chk=cyclohexyl-triBIP-neutral.chk
%mem=10GB
%nprocshared=16
#p opt=tight freq=internalmodes b3lyp/6-31g(d,p)
scrf=(cpcm,solvent=dichloromethane,read) nosymm empiricaldispersion=gd3bj
int=grid=ultrafine

cyclohexylimine triBIP neutral optimization

0 1
 C                  1.66843100    0.39516200    0.91280400
 C                  0.57132100    1.23957700    0.61998800
 C                  0.77407700    2.61691100    0.47750600
 C                  2.07146600    3.10290500    0.63338200
 C                  3.15069400    2.25479400    0.92894900
 C                  2.97767100    0.87213900    1.07775500
 C                 -0.20470600   -0.77622000    0.75714700
 H                 -0.05282600    3.27920000    0.25236800
 H                  2.25771400    4.16481600    0.52376900
 H                  4.14187400    2.68034100    1.03366500
 C                 -2.48282700   -1.70797700    0.53067700
 C                 -3.42314600   -2.76377700    0.53264600
 C                 -3.00331500   -4.07454600    0.77747300
 C                 -1.64526800   -4.28576600    1.01374800
 C                 -0.71901000   -3.23181200    1.00891000
 C                 -1.11486500   -1.90839900    0.76840100
 C                 -4.51549800   -0.93183000    0.09451300
 H                 -3.71237700   -4.89360100    0.78254400
 H                 -1.28894200   -5.29028600    1.20792600
 H                  0.32500600   -3.45033000    1.19745100
 N                 -0.58454100    0.47985600    0.53033300
 C                 -6.90675400   -0.54294000   -0.38797000
 C                 -5.60008300   -0.02343600   -0.23071400
 C                 -5.38145500    1.35668400   -0.39645600
 C                 -6.41929600    2.22104800   -0.71914000
 C                 -7.70750300    1.67653800   -0.86613900
 C                 -7.97189800    0.32033300   -0.71024800
 H                 -4.37773100    1.75062400   -0.27354500
 H                 -8.53410200    2.33713700   -1.11192600
 C                 -6.17596900    3.69332200   -0.93557900
 C                 -9.35419600   -0.24811200   -0.87155800
 O                 -7.18909900   -1.85511100   -0.23978900
 H                 -6.33453100   -2.32440400   -0.01803500
 N                 -3.20188100   -0.56870300    0.25393600
 N                 -4.67880200   -2.24662400    0.26016800
 H                 -2.76857000    0.34565900    0.19084000
 N                  1.14605000   -0.87200400    0.99069600
 H                  1.71961200   -1.68769000    1.17146200
 C                  4.05353800   -0.05188500    1.39405100
 N                  3.91262400   -1.37581600    1.43848900
 N                  5.33931800    0.33914500    1.68258600
 C                  7.41477900   -0.96953100    2.28675500
 C                  7.83195200   -2.29413800    2.46440600
 C                  6.95049900   -3.37684800    2.30013000
 C                  5.61352900   -3.18567500    1.95383100
 C                  5.16519000   -1.87128600    1.76957200
 C                  6.06877000   -0.79589700    1.93116000
 H                  8.86372200   -2.48228800    2.74164700
 H                  7.32193800   -4.38362300    2.45043100
 H                  4.93659300   -4.02346900    1.83718900
 H                  5.74180300    1.26587200    1.76348700
 C                  8.31638600    0.16383100    2.48239500
 H                  9.34713000   -0.09504600    2.73901000
 N                  7.90711900    1.37246000    2.36870600
 C                  8.83053900    2.48807400    2.57719100
 C                 10.28114100    2.14183900    2.93146400
 C                  8.77712500    3.40012900    1.34011100
 H                  8.40904700    3.06300500    3.41480500
 C                 11.11225000    3.41208200    3.14522200
 H                 10.71860800    1.55273600    2.11600300
 H                 10.31234700    1.51651900    3.82913000
 C                  9.61112100    4.66862700    1.54573400
 H                  9.16180600    2.83733400    0.48052800
 H                  7.73396200    3.64837400    1.12228700
 C                 11.05864700    4.33321700    1.92175200
 H                 12.14781800    3.14258300    3.37510400
 H                 10.72617300    3.95211200    4.01890500
 H                  9.58530000    5.28441600    0.64152100
 H                  9.16157700    5.26584100    2.34883400
 H                 11.62119300    5.25186800    2.11598100
 H                 11.54462300    3.83287000    1.07473400
 C                 -9.40684600   -1.26743332   -2.02473276
 H                 -9.32251695   -2.25807520   -1.62923652
 H                -10.33643128   -1.16920369   -2.54542666
 H                 -8.59817119   -1.08325049   -2.70076660
 C                 -6.02768142    4.01913885   -2.43339547
 H                 -6.99424160    4.03636878   -2.89205062
 H                 -5.56240966    4.97609745   -2.54587849
 H                 -5.42336203    3.27132942   -2.90294753
 C                 -9.79722579   -0.99898544    0.39789609
 H                -10.85424781   -0.89196600    0.52498378
 H                 -9.55268708   -2.03627751    0.30236608
 H                 -9.29256171   -0.59042333    1.24836136
 C                -10.37131837    0.87151781   -1.16050638
 H                -10.35464188    1.58336587   -0.36182358
 H                -10.11446483    1.35867876   -2.07789423
 H                -11.35155005    0.45043304   -1.24256410
 C                 -7.34649697    4.53805392   -0.39902308
 H                 -7.04688147    5.56330290   -0.33581634
 H                 -8.18227620    4.45090126   -1.06142589
 H                 -7.62362179    4.18688147    0.57297473
 C                 -4.88491618    4.14886534   -0.23041031
 H                 -4.88582683    3.79438776    0.77916624
 H                 -4.03674647    3.75101825   -0.74734921
 H                 -4.83514543    5.21770381   -0.23309330

radii=bondi
dis
rep
cav





