%chk=cyclohexyl-monoBIP-TS1.chk
%mem=10GB
%nprocshared=16
#p opt=(calcfc,tight,ts,noeigentest) freq=internalmodes b3lyp/6-31g(d,p)
scrf=(cpcm,solvent=dichloromethane,read) nosymm 
empiricaldispersion=gd3bj int=grid=ultrafine

cyclohexylimine monoBIP oxidized, optimize to transition state of first
proton transferred

1 2
C    -0.424607     2.698681     0.246936
C    -1.834895     2.828754     0.185660
C    -2.424886     4.098846     0.090523
C    -1.569497     5.191357     0.066722
C    -0.164852     5.047616     0.134183
C     0.448813     3.799258     0.226225
C    -1.352031     0.697422     0.311466
H    -3.499604     4.214883     0.037539
H    -1.985482     6.188922    -0.003634
H     0.457072     5.934987     0.115050
N    -2.373056     1.565117     0.229857
C    -2.977567    -1.164504     0.371220
C    -1.583889    -0.721368     0.369574
C    -0.560591    -1.655843     0.409136
C    -0.848746    -3.024455     0.461911
C    -2.215394    -3.436678     0.491161
C    -3.284485    -2.575241     0.458200
H     0.466302    -1.318690     0.395031
H    -2.410822    -4.497069     0.544900
C     0.233944    -4.089907     0.477110
C    -4.733161    -3.059758     0.502657
O    -3.926754    -0.291611     0.288683
N    -0.159673     1.357110     0.324518
H     0.798762     1.018009     0.383010
C     1.898417     3.621363     0.297259
H     2.498358     4.536284     0.266080
N     2.408265     2.449815     0.389010
C     3.871568     2.326873     0.452582
C     4.537652     2.747910    -0.868229
C     4.489658     3.094367     1.632758
H     4.076322     1.261006     0.604312
C     6.052077     2.520597    -0.807212
H     4.327522     3.810324    -1.040859
H     4.093558     2.190502    -1.698265
C     6.003169     2.861186     1.697970
H     4.295817     4.165731     1.503811
H     4.004091     2.788318     2.563892
C     6.680962     3.257149     0.380761
H     6.517422     2.837187    -1.745439
H     6.245442     1.445153    -0.706744
H     6.429428     3.424890     2.533425
H     6.195998     1.800126     1.899858
H     7.754986     3.053382     0.429497
H     6.568238     4.338537     0.232452
H    -3.458560     0.732537     0.239904
C    -5.457763    -2.652940    -0.800234
H    -6.478475    -3.043175    -0.779590
H    -5.503644    -1.570556    -0.913427
H    -4.947155    -3.074311    -1.669598
C    -5.453293    -2.444617     1.724046
H    -5.491098    -1.357955     1.663365
H    -6.476851    -2.825562     1.762728
H    -4.948780    -2.726812     2.651619
C    -4.801307    -4.588504     0.635955
H    -4.342551    -5.095607    -0.217052
H    -4.308416    -4.932997     1.548740
H    -5.848585    -4.892902     0.683270
C     0.061910    -4.967137     1.738421
H    -0.914426    -5.454721     1.767608
H     0.828377    -5.746193     1.736297
H     0.178048    -4.371048     2.646261
C     0.064986    -4.970960    -0.783111
H     0.821049    -5.760096    -0.770114
H    -0.919054    -5.442400    -0.819018
H     0.198227    -4.379851    -1.691934
C     1.646432    -3.492492     0.479322
H     1.830423    -2.889548    -0.413151
H     1.820166    -2.872466     1.362331
H     2.378025    -4.303097     0.490103

radii=bondi
dis
rep
cav











