%chk=cyclohexyl-diBIP-neutral.chk
%mem=10GB
%nprocshared=16
#p opt=tight freq=internalmodes b3lyp/6-31g(d,p)
scrf=(cpcm,solvent=dichloromethane,read) nosymm empiricaldispersion=gd3bj
int=grid=ultrafine guess=tcheck 

cyclohexylimine diBIP neutral optimization

0 1
 C                  1.59066600    1.13870700    0.16292800
 C                  0.37304300    1.85685200    0.14755200
 C                  0.39195200    3.25422700    0.05531300
 C                  1.63113800    3.88660200   -0.03037300
 C                  2.83148000    3.15698500   -0.02123700
 C                  2.84634000    1.75943600    0.07737100
 C                 -0.13779500   -0.24165700    0.28699400
 H                 -0.53115100    3.82092200    0.04622900
 H                  1.67390100    4.96662500   -0.10626600
 H                  3.77680200    3.68424800   -0.09211900
 C                 -2.30339200   -1.42680200    0.30473200
 C                 -3.11506700   -2.58317200    0.34571700
 C                 -2.52488200   -3.84457900    0.47077900
 C                 -1.13329100   -3.90494500    0.54664100
 C                 -0.33630700   -2.75119800    0.49332600
 C                 -0.90247800   -1.47473300    0.36783100
 C                 -4.44575200   -0.87148400    0.15128600
 H                 -3.13170300   -4.74093300    0.50580400
 H                 -0.64922300   -4.86902000    0.64730400
 H                  0.74076900   -2.85323600    0.55622300
 N                 -0.68896500    0.96950800    0.22590700
 C                 -6.89945900   -0.72477300   -0.13351100
 C                 -5.65025900   -0.07220500    0.00647500
 C                 -5.60107000    1.33207000   -0.00836200
 C                 -6.75045000    2.09815600   -0.16896000
 C                 -7.97247100    1.42360200   -0.31900200
 C                 -8.07202000    0.03407500   -0.30215900
 H                 -4.64520400    1.83089500    0.11275100
 H                 -8.88213700    2.00370500   -0.44419300
 C                 -6.68239700    3.60536700   -0.18788500
 H                 -6.14181700    3.98927800    0.68209600
 H                 -6.15791600    3.96871900   -1.07742400
 H                 -7.68274500    4.04250800   -0.18743600
 C                 -9.39283500   -0.66902800   -0.44949700
 H                 -9.36551600   -1.39922100   -1.26320200
 H                 -9.65070900   -1.22213100    0.45965200
 H                -10.18940400    0.04854000   -0.65104400
 O                 -7.01921400   -2.07101100   -0.11363000
 H                 -6.10751900   -2.45242100    0.02624700
 N                 -3.17065200   -0.36689600    0.18645600
 N                 -4.44423600   -2.20327600    0.24625600
 H                 -2.84784500    0.59247800    0.12774900
 N                  1.23589000   -0.18366700    0.25545900
 H                  1.92241800   -0.92839900    0.26655700
 C                  4.09066000    0.99860600    0.08463800
 H                  5.00688700    1.59296000   -0.00531500
 N                  4.10626800   -0.28010700    0.18439200
 C                  5.42467600   -0.93760800    0.16025400
 C                  6.14088500   -0.72535700   -1.18398700
 C                  6.32363700   -0.49867600    1.32859700
 H                  5.23531900   -2.01124200    0.27350100
 C                  7.49543500   -1.44075900   -1.21786500
 H                  6.29235200    0.35124200   -1.32847200
 H                  5.49734400   -1.07187900   -1.99856900
 C                  7.67681700   -1.21752200    1.29187900
 H                  6.48607300    0.58324000    1.26144500
 H                  5.80882800   -0.68955000    2.27526200
 C                  8.38707200   -1.00600700   -0.04972700
 H                  7.99264500   -1.24448200   -2.17324500
 H                  7.33355100   -2.52442100   -1.16066900
 H                  8.30344200   -0.86633600    2.11792600
 H                  7.51896600   -2.29218800    1.44904800
 H                  9.33284600   -1.55642300   -0.06943400
 H                  8.63397900    0.05728300   -0.16284700

radii=bondi
dis
rep
cav

