%chk=cyclohexyl-diBIP-neutral.chk
%mem=10GB
%nprocshared=16
#p opt=tight freq=internalmodes b3lyp/6-31g(d,p)
scrf=(cpcm,solvent=dichloromethane,read) nosymm 
empiricaldispersion=gd3bj int=grid=ultrafine

cyclohexylimine diBIP neutral optimization

0 1
C     1.579646     1.136284    -0.019745
C     0.355893     1.840489    -0.092226
C     0.362978     3.230381    -0.262889
C     1.597756     3.869434    -0.363470
C     2.804621     3.153702    -0.289169
C     2.830903     1.763921    -0.117108
C    -0.137715    -0.252300     0.152837
H    -0.566227     3.784842    -0.318110
H     1.632829     4.944331    -0.496917
H     3.746349     3.685758    -0.369261
C    -2.294973    -1.447086     0.243218
C    -3.099072    -2.606364     0.320701
C    -2.500455    -3.862028     0.462987
C    -1.107351    -3.913422     0.519312
C    -0.317965    -2.756965     0.426261
C    -0.893110    -1.486640     0.282551
C    -4.442588    -0.903056     0.118962
H    -3.101625    -4.760623     0.526456
H    -0.615908    -4.872186     0.634263
H     0.760516    -2.852417     0.470382
N    -0.698828     0.948693     0.021320
C    -6.907407    -0.758504    -0.129589
C    -5.652859    -0.106102    -0.004073
C    -5.591059     1.295062     0.000445
C    -6.737564     2.072803    -0.112340
C    -7.960695     1.398395    -0.249255
C    -8.087971     0.006995    -0.264163
H    -4.626123     1.777567     0.105101
H    -8.860185     1.987260    -0.342553
C    -6.632765     3.602781    -0.094821
C    -9.460204    -0.665236    -0.425656
O    -6.985743    -2.108799    -0.127919
H    -6.064722    -2.472012     0.014244
N    -3.168783    -0.393205     0.121262
N    -4.431224    -2.233015     0.236694
H    -2.847068     0.564431     0.031955
N     1.235487    -0.182725     0.137535
H     1.928737    -0.918827     0.199437
C     4.081740     1.017629    -0.038901
H     4.994280     1.618192    -0.124222
N     4.104334    -0.255385     0.116217
C     5.424452    -0.904756     0.179755
C     6.223189    -0.728433    -1.122776
C     6.249245    -0.433770     1.389520
H     5.232464    -1.976407     0.307943
C     7.572009    -1.451524    -1.048620
H     6.391038     0.342368    -1.290540
H     5.631004    -1.096572    -1.965785
C     7.597186    -1.159373     1.459603
H     6.421442     0.645534     1.301154
H     5.674858    -0.593491     2.306775
C     8.390516    -0.984866     0.160142
H     8.129706    -1.289658    -1.976028
H     7.398311    -2.532068    -0.968534
H     8.172723    -0.790951     2.314312
H     7.422579    -2.228855     1.633580
H     9.334991    -1.535121     0.214542
H     8.645678     0.075026     0.033517
C    -5.823565     4.067776    -1.322262
H    -5.708832     5.155979    -1.312118
H    -4.825860     3.621147    -1.327972
H    -6.328601     3.784734    -2.249842
C    -5.907264     4.056108     1.187732
H    -4.898761     3.639775     1.244164
H    -5.821367     5.146489     1.207647
H    -6.455869     3.738729     2.078624
C    -8.012688     4.273603    -0.131216
H    -8.559145     4.020360    -1.043486
H    -8.621763     3.975402     0.726470
H    -7.892483     5.359255    -0.100500
C    -9.472073    -1.512027    -1.715444
H    -8.697785    -2.278585    -1.692806
H   -10.443817    -2.001634    -1.830641
H    -9.306983    -0.876791    -2.590095
C    -9.764863    -1.560093     0.795199
H   -10.744141    -2.031779     0.669086
H    -9.015180    -2.340198     0.915013
H    -9.793595    -0.960055     1.708980
C   -10.594370     0.366618    -0.531112
H   -10.658891     0.990042     0.364579
H   -10.472351     1.023477    -1.396497
H   -11.544965    -0.160808    -0.644661

radii=bondi
dis
rep
cav



