%chk=cyclohexyl-triBIP-E4PT.chk
%mem=10GB
%nprocshared=16
#p opt=(tight,recalcfc=10) freq=internalmodes b3lyp/6-31g(d,p)
scrf=(cpcm,solvent=dichloromethane,read) nosymm empiricaldispersion=gd3bj
int=grid=ultrafine

cyclohexylimine triBIP oxidized, all protons transferred optimization

1 2
C     1.604844     0.342192     1.143316
C     0.532362     1.214834     0.830867
C     0.703427     2.590103     0.690696
C     1.995276     3.087488     0.871799
C     3.072571     2.246059     1.181922
C     2.904490     0.862822     1.323041
C    -0.153020    -0.893168     0.964898
H    -0.127128     3.241678     0.449200
H     2.171002     4.151587     0.769096
H     4.063571     2.661969     1.313863
C    -2.452560    -1.800755     0.626472
C    -3.346813    -2.903666     0.591933
C    -2.932565    -4.211710     0.843294
C    -1.582927    -4.393911     1.137545
C    -0.677271    -3.319364     1.175072
C    -1.085682    -2.006655     0.927679
C    -4.394612    -1.002596     0.123099
H    -3.625716    -5.042896     0.812812
H    -1.215250    -5.392741     1.339843
H     0.365280    -3.502932     1.401743
N    -0.566337     0.391091     0.729067
C    -6.822926    -0.611006    -0.478253
C    -5.468898    -0.097712    -0.232200
C    -5.199856     1.260589    -0.341423
C    -6.197082     2.172494    -0.697280
C    -7.507509     1.679690    -0.955856
C    -7.857801     0.354730    -0.867917
H    -4.191491     1.596592    -0.145931
H    -8.262195     2.399393    -1.239901
C    -5.934537     3.669095    -0.819181
C    -9.272198    -0.134051    -1.175052
O    -7.074293    -1.840216    -0.361922
N    -3.123466    -0.636554     0.334467
N    -4.563330    -2.353152     0.271485
N     1.154485    -0.961280     1.220378
C     4.016652    -0.010783     1.640127
N     3.858344    -1.364953     1.743326
N     5.284920     0.363604     1.858379
C     7.330595    -0.998773     2.407874
C     7.769664    -2.320286     2.614394
C     6.885358    -3.399416     2.540184
C     5.527168    -3.216551     2.251387
C     5.086270    -1.913868     2.042226
C     5.962174    -0.802679     2.109382
H     8.815440    -2.495229     2.838255
H     7.259304    -4.401487     2.708227
H     4.848180    -4.058293     2.196119
C     8.244206     0.098278     2.507746
H     9.284985    -0.098539     2.737241
N     7.877901     1.333460     2.346072
C     8.722076     2.534033     2.434866
C    10.191668     2.225119     2.705817
C     8.543776     3.364325     1.156961
H     8.320742     3.110005     3.276647
C    10.986705     3.533889     2.809170
H    10.590503     1.617522     1.884335
H    10.296919     1.647068     3.628650
C     9.339986     4.669398     1.260983
H     8.900378     2.773708     0.306185
H     7.480873     3.568555     0.996060
C    10.819358     4.394506     1.552111
H    12.041962     3.303938     2.978772
H    10.638626     4.094908     3.684367
H     9.229810     5.238573     0.333939
H     8.918458     5.283668     2.065724
H    11.363823     5.336438     1.665915
H    11.261917     3.869178     0.697063
H     6.882607     1.479253     2.125144
H     2.951443    -1.814538     1.613233
H    -1.535219     0.619805     0.512439
H    -5.472586    -2.784224     0.135154
C    -9.222821    -1.135623    -2.351643
H    -8.637116    -2.015340    -2.088960
H   -10.238684    -1.451451    -2.605930
H    -8.779722    -0.667146    -3.234709
C    -6.243692     4.112844    -2.266081
H    -7.277642     3.895225    -2.542983
H    -6.088388     5.190868    -2.360042
H    -5.584515     3.607600    -2.976145
C   -10.199857     1.023152    -1.574367
H   -10.297025     1.762136    -0.773983
H    -9.848782     1.536759    -2.473296
H   -11.194084     0.622529    -1.783322
C    -9.875250    -0.817127     0.072390
H    -9.280519    -1.677040     0.376339
H    -9.926793    -0.113510     0.907691
H   -10.891942    -1.151921    -0.151907
C    -6.865428     4.424080     0.155179
H    -6.704131     5.500610     0.053790
H    -7.918478     4.220657    -0.050627
H    -6.656813     4.140181     1.189476
C    -4.481145     4.035590    -0.488424
H    -4.221109     3.757044     0.536099
H    -3.777356     3.547957    -1.167917
H    -4.350227     5.115435    -0.588230

radii=bondi
dis
rep
cav







