%chk=cyclohexyl-triBIP-E2PT.chk
%mem=10GB
%nprocshared=16
#p opt=tight freq=internalmodes b3lyp/6-31g(d,p)
scrf=(cpcm,solvent=dichloromethane,read) nosymm empiricaldispersion=gd3bj
int=grid=ultrafine

cyclohexylimine triBIP oxidized, first two protons transferred optimization

1 2
C     1.590076     0.353309     1.105904
C     0.492351     1.177945     0.812503
C     0.633962     2.557454     0.672190
C     1.919519     3.068944     0.838583
C     3.019434     2.246619     1.133778
C     2.885387     0.861050     1.276796
C    -0.213832    -0.944387     0.938511
H    -0.211686     3.191796     0.441712
H     2.079306     4.134964     0.735069
H     3.997295     2.698653     1.245443
C    -2.484304    -1.841410     0.623100
C    -3.387661    -2.934367     0.591313
C    -2.979665    -4.244318     0.835453
C    -1.628403    -4.443541     1.120011
C    -0.711583    -3.382115     1.155355
C    -1.118147    -2.065080     0.912626
C    -4.417542    -1.020855     0.136819
H    -3.678857    -5.070455     0.808031
H    -1.271294    -5.446508     1.316902
H     0.327271    -3.590642     1.378654
N    -0.600436     0.329673     0.722078
C    -6.842799    -0.603090    -0.456427
C    -5.483757    -0.102899    -0.211715
C    -5.201471     1.250854    -0.316407
C    -6.192369     2.175159    -0.667828
C    -7.506448     1.696029    -0.926320
C    -7.869415     0.373394    -0.842298
H    -4.190074     1.578375    -0.122265
H    -8.254886     2.423672    -1.206294
C    -5.915115     3.669325    -0.781606
C    -9.288102    -0.101067    -1.149020
O    -7.104696    -1.829519    -0.342165
N    -3.139247    -0.669561     0.341904
N    -4.599892    -2.368266     0.281083
N     1.113270    -0.943128     1.173115
C     3.976165    -0.048739     1.581876
N     3.831799    -1.371101     1.657056
N     5.268419     0.344844     1.816342
C     7.365048    -0.954931     2.352861
C     7.787992    -2.275529     2.535078
C     6.897020    -3.360529     2.434395
C     5.547415    -3.176832     2.143046
C     5.093317    -1.864573     1.951695
C     6.003737    -0.788399     2.054525
H     8.831818    -2.461089     2.763678
H     7.275921    -4.364063     2.587369
H     4.866719    -4.016370     2.069412
C     8.271161     0.186719     2.472751
H     9.313420    -0.055712     2.696045
N     7.845137     1.386151     2.329888
C     8.756791     2.522264     2.456255
C    10.230957     2.216560     2.744199
C     8.620235     3.394279     1.197032
H     8.366469     3.114047     3.296901
C    11.037725     3.513639     2.881653
H    10.641782     1.615897     1.922677
H    10.323367     1.618808     3.656847
C     9.429924     4.688145     1.324462
H     8.978007     2.815412     0.336744
H     7.561478     3.610189     1.023471
C    10.901751     4.395594     1.635753
H    12.089900     3.278187     3.068716
H    10.677712     4.068161     3.757125
H     9.343141     5.274637     0.404349
H     9.005162     5.297880     2.131818
H    11.454890     5.330499     1.770534
H    11.352947     3.877322     0.780308
H    -1.580292     0.545535     0.516636
H    -5.515798    -2.787873     0.147649
H     1.737346    -1.726651     1.360575
H     5.689365     1.267912     1.850279
C    -9.248969    -1.098880    -2.329460
H    -8.672350    -1.985926    -2.071166
H   -10.268345    -1.402843    -2.583722
H    -8.802008    -0.631607    -3.211162
C   -10.205549     1.066200    -1.542560
H   -11.203314     0.674855    -1.751737
H   -10.295234     1.802486    -0.738870
H    -9.851195     1.580211    -2.439877
C    -9.895604    -0.782897     0.097174
H    -9.311168    -1.651693     0.395491
H    -9.936945    -0.082734     0.935857
H   -10.916738    -1.103794    -0.126782
C    -6.222936     4.124135    -2.225421
H    -7.258799     3.916115    -2.502290
H    -6.059635     5.201475    -2.312244
H    -5.568269     3.618522    -2.939327
C    -6.837215     4.426649     0.199678
H    -6.667023     5.502185     0.103232
H    -7.892424     4.233066    -0.004193
H    -6.627858     4.135409     1.231720
C    -4.457741     4.020198    -0.451412
H    -4.197621     3.730977     0.570119
H    -3.759671     3.532939    -1.137082
H    -4.318358     5.099707    -0.542347

radii=bondi
dis
rep
cav









