%chk=cyclohexyl-diBIP-E1PT.chk
%mem=10GB
%nprocshared=16
#p opt=tight freq=internalmodes b3lyp/6-31g(d,p)
scrf=(cpcm,solvent=dichloromethane,read) nosymm empiricaldispersion=gd3bj
int=grid=ultrafine

cyclohexylimine diBIP oxidized, first proton transferred, optimization

1 2
 C                  1.55755100    1.10165100    0.12962500
 C                  0.32627800    1.79475400    0.10300700
 C                  0.31544800    3.19311200    0.00859100
 C                  1.54155500    3.84817700   -0.06627700
 C                  2.75794800    3.14209400   -0.04487900
 C                  2.80181800    1.74703400    0.05458400
 C                 -0.13585100   -0.31394300    0.24568000
 H                 -0.61916800    3.74034600   -0.00905800
 H                  1.56437100    4.92871000   -0.14175700
 H                  3.69217100    3.68956100   -0.10648300
 C                 -2.28830000   -1.50697400    0.28002900
 C                 -3.08937900   -2.65971100    0.33065500
 C                 -2.52456500   -3.93024300    0.45019900
 C                 -1.13467700   -3.98528300    0.51090300
 C                 -0.33084400   -2.83198500    0.45014900
 C                 -0.88650500   -1.55538600    0.33019800
 C                 -4.41674100   -0.86465000    0.14343300
 H                 -3.13522700   -4.82199700    0.49220200
 H                 -0.65153700   -4.94955800    0.60600800
 H                  0.74544400   -2.94141700    0.50271500
 N                 -0.71507400    0.88444500    0.17713400
 C                 -6.90878900   -0.73394300   -0.09344400
 C                 -5.60808300   -0.06073300    0.01570600
 C                 -5.53586700    1.31823100   -0.01405700
 C                 -6.69526100    2.10981200   -0.17220500
 C                 -7.94966700    1.47607600   -0.30364100
 C                 -8.09247200    0.10580800   -0.26202500
 H                 -4.57908700    1.81925700    0.08469100
 H                 -8.83079600    2.09550900   -0.42808500
 C                 -6.57916000    3.60114200   -0.20817700
 C                 -9.41969100   -0.56994000   -0.37132600
 O                 -7.01791200   -1.98406000   -0.04284100
 N                 -3.14023100   -0.42896300    0.17029300
 N                 -4.39514800   -2.20905400    0.24178100
 H                 -2.76870800    0.51998700    0.11376000
 N                  1.23244700   -0.22848000    0.22258400
 H                  1.93935600   -0.95532400    0.24095300
 C                  4.05949900    1.00742700    0.07600700
 H                  4.96701800    1.61574700   -0.00200200
 N                  4.09024700   -0.27079400    0.17410700
 C                  5.41581700   -0.91384100    0.16525600
 C                  6.14637200   -0.69137500   -1.16952600
 C                  6.29526300   -0.46703100    1.34517500
 H                  5.23598600   -1.98946200    0.27444200
 C                  7.50720900   -1.39559600   -1.18733900
 H                  6.29046900    0.38688400   -1.30905600
 H                  5.51686100   -1.04149200   -1.99338500
 C                  7.65445200   -1.17527700    1.32520900
 H                  6.44970400    0.61616800    1.28031500
 H                  5.77032100   -0.66294300    2.28509800
 C                  8.38018600   -0.95654000   -0.00683600
 H                  8.01469300   -1.19207100   -2.13563700
 H                  7.35319500   -2.48066100   -1.13587600
 H                  8.26733300   -0.82030200    2.15977600
 H                  7.50246600   -2.25120600    1.47922200
 H                  9.33017500   -1.49978000   -0.01521200
 H                  8.62077200    0.10862000   -0.11532100
 H                 -5.27424700   -2.72610700    0.21657700
 C                 -7.96454792    4.27365126   -0.20255487
 H                 -7.84500401    5.33635977   -0.16706024
 H                 -8.49554314    4.00395911   -1.09149256
 H                 -8.51567094    3.94789760    0.65479451
 C                 -5.82584338    4.04562754   -1.47567322
 H                 -4.77152353    3.99170791   -1.30131058
 H                 -6.08614913    3.40163747   -2.28956369
 H                 -6.09644942    5.05236802   -1.71680798
 C                 -5.76612916    4.11362433    0.99512791
 H                 -6.06433964    3.58684137    1.87743750
 H                 -4.72383117    3.94985757    0.81709601
 H                 -5.94531885    5.16024934    1.12691236
 C                 -9.42086560   -1.59002816   -1.52502386
 H                 -9.19372276   -2.56269511   -1.14132457
 H                -10.38600788   -1.60518929   -1.98672779
 H                 -8.68368224   -1.31096233   -2.24861418
 C                -10.54117805    0.46036728   -0.60009160
 H                -10.57897972    1.13630819    0.22850656
 H                -10.34483879    1.00776524   -1.49825993
 H                -11.47893039   -0.04710909   -0.68946888
 C                 -9.72907345   -1.36194865    0.91265406
 H                -10.78773533   -1.39628717    1.06416605
 H                 -9.34991009   -2.35797292    0.81741335
 H                 -9.26453534   -0.88187731    1.74849846

radii=bondi
dis
rep
cav





