%chk=cyclohexyl-monoBIP-E0PT.chk
%mem=10GB
%nprocshared=16
#p opt=tight freq=internalmodes b3lyp/6-31g(d,p)
scrf=(cpcm,solvent=dichloromethane,read) nosymm empiricaldispersion=gd3bj
int=grid=ultrafine

cyclohexylimine monoBIP oxidized but no PT optimization

1 2
C    -0.439441     2.706703     0.233429
C    -1.853314     2.850437     0.181342
C    -2.429223     4.130564     0.090669
C    -1.563892     5.212033     0.063517
C    -0.157609     5.052288     0.121844
C     0.445064     3.799182     0.207619
C    -1.402764     0.722176     0.305223
H    -3.503056     4.256816     0.044742
H    -1.968005     6.214728    -0.002495
H     0.472412     5.934038     0.100700
N    -2.415291     1.603331     0.228753
C    -2.999660    -1.174782     0.386022
C    -1.621080    -0.695093     0.370605
C    -0.574472    -1.613367     0.410634
C    -0.831236    -2.980659     0.474548
C    -2.191576    -3.420832     0.513393
C    -3.279001    -2.583323     0.479814
H     0.445102    -1.255692     0.389132
H    -2.365055    -4.484460     0.574650
C     0.269744    -4.027561     0.492350
C    -4.717358    -3.103373     0.531329
O    -3.988395    -0.329445     0.309978
H    -3.605072     0.640664     0.257638
N    -0.193802     1.365946     0.309545
H     0.759372     1.012909     0.363180
C     1.893314     3.609589     0.268671
H     2.499643     4.519879     0.229715
N     2.395099     2.434908     0.362522
C     3.858517     2.306034     0.420638
C     4.523203     2.728339    -0.900440
C     4.480810     3.069439     1.601495
H     4.060444     1.239343     0.569797
C     6.037379     2.498305    -0.842432
H     4.315106     3.791482    -1.070848
H     4.076680     2.173458    -1.730850
C     5.994022     2.833797     1.663342
H     4.288385     4.141413     1.475239
H     3.996305     2.762413     2.532837
C     6.669577     3.231819     0.345654
H     6.501619     2.815702    -1.780924
H     6.229185     1.422392    -0.744122
H     6.422638     3.395061     2.499224
H     6.185814     1.772044     1.862457
H     7.743455     3.026785     0.391677
H     6.557759     4.313645     0.199764
C    -5.445884    -2.513343     1.759572
H    -5.512619    -1.427406     1.707427
H    -6.459881    -2.919057     1.801484
H    -4.930306    -2.789124     2.682992
C    -4.745112    -4.634519     0.658228
H    -5.784154    -4.965073     0.709197
H    -4.278326    -5.125193    -0.199959
H    -4.238951    -4.972112     1.566437
C    -5.460754    -2.714384    -0.765987
H    -5.548311    -1.633991    -0.873544
H    -4.938012    -3.110791    -1.640012
H    -6.466514    -3.141713    -0.745005
C     0.115358    -4.900983     1.758249
H    -0.853364    -5.403209     1.792657
H     0.893261    -5.668726     1.758521
H     0.224072    -4.298203     2.662548
C     1.671196    -3.405295     0.488854
H     1.842970    -2.805126    -0.407919
H     1.833034    -2.775698     1.367242
H     2.417223    -4.202627     0.504628
C     0.113231    -4.917375    -0.763091
H     0.882667    -5.693514    -0.748730
H    -0.862455    -5.406439    -0.794666
H     0.233549    -4.327985    -1.674798

radii=bondi
dis
rep
cav




