%chk=cyclohexyl-monoBIP-E0PT.chk
%mem=10GB
%nprocshared=16
#p opt=tight freq=internalmodes b3lyp/6-31g(d,p)
scrf=(cpcm,solvent=dichloromethane,read) nosymm empiricaldispersion=gd3bj
int=grid=ultrafine

cyclohexylimine monoBIP oxidized but no PT optimization

1 2
 C                 -0.44168400    2.68213100    0.27144000
 C                 -1.85688200    2.81852400    0.23400700
 C                 -2.43904300    4.09643000    0.14959700
 C                 -1.57883900    5.18172600    0.11243200
 C                 -0.17103400    5.02851000    0.15383400
 C                  0.43780200    3.77800900    0.23387800
 C                 -1.39395800    0.69425400    0.34877400
 H                 -3.51391900    4.21818400    0.11548400
 H                 -1.98799800    6.18262100    0.05037500
 H                  0.45484500    5.91295800    0.12369700
 N                 -2.41331800    1.56873900    0.28460600
 C                 -2.98246600   -1.20106300    0.41131600
 C                 -1.60766100   -0.72318400    0.40428800
 C                 -0.57336000   -1.65491300    0.43853400
 C                 -0.84467100   -3.02323800    0.48626800
 C                 -2.20174200   -3.46946900    0.50850700
 C                 -3.26602900   -2.60585600    0.47329600
 H                  0.45599100   -1.31914700    0.42434800
 H                 -2.38836000   -4.53672600    0.55350400
 C                  0.25632900   -4.03100900    0.51182200
 C                 -4.69333200   -3.05752000    0.48673900
 O                 -3.99139400   -0.37831000    0.35816200
 H                 -3.62275300    0.59408100    0.31647600
 N                 -0.18848600    1.34264800    0.34397500
 H                  0.76678600    0.99324400    0.38612000
 C                  1.88738200    3.59214800    0.27619500
 H                  2.49127600    4.50357900    0.22817700
 N                  2.39229800    2.41853500    0.36677200
 C                  3.85604600    2.29104900    0.41073400
 C                  4.50992800    2.71524000   -0.91486100
 C                  4.48672800    3.05207700    1.58862500
 H                  4.06023400    1.22445300    0.55629700
 C                  6.02464700    2.48526300   -0.86815100
 H                  4.30064200    3.77851100   -1.08261700
 H                  4.05690300    2.16070100   -1.74206300
 C                  6.00020900    2.81558000    1.63890100
 H                  4.29364000    4.12440200    1.46584900
 H                  4.00798200    2.74328700    2.52243900
 C                  6.66518700    3.21676600    0.31681100
 H                  6.48239700    2.80464700   -1.80916200
 H                  6.21735900    1.40913200   -0.77343100
 H                  6.43538900    3.37467000    2.47282800
 H                  6.19310700    1.75323000    1.83387100
 H                  7.73956900    3.01285200    0.35384900
 H                  6.55121900    4.29875700    0.17391600
 C                 -5.45690951   -2.42957903    1.66751820
 H                 -5.97490003   -1.55521905    1.33273403
 H                 -6.16199248   -3.13632169    2.05258032
 H                 -4.76437338   -2.16089989    2.43765146
 C                 -4.77099129   -4.59124674    0.60185345
 H                 -5.79642514   -4.89665219    0.61247942
 H                 -4.27464758   -5.03728168   -0.23456496
 H                 -4.29585917   -4.90544719    1.50762800
 C                 -5.41683172   -2.61835622   -0.79983915
 H                 -5.85853143   -1.65541619   -0.64967973
 H                 -4.71354393   -2.56659037   -1.60457923
 H                 -6.18111096   -3.32792900   -1.03917930
 C                  0.17613509   -4.87632726    1.79658111
 H                 -0.53582222   -5.66361040    1.66166611
 H                  1.13719247   -5.29681707    2.00742952
 H                 -0.12868411   -4.25588556    2.61330466
 C                  1.64227586   -3.36338425    0.44091017
 H                  1.71263873   -2.78184221   -0.45449919
 H                  1.77559223   -2.72715123    1.29081269
 H                  2.40155931   -4.11729039    0.43714713
 C                  0.11068100   -5.01337895   -0.66518095
 H                  1.01736403   -5.56993235   -0.77952341
 H                 -0.69847032   -5.68587167   -0.47043060
 H                 -0.08804767   -4.46688827   -1.56337628

radii=bondi
dis
rep
cav




