%chk=cyclohexyl-monoBIP-TS2.chk
%mem=10GB
%nprocshared=16
#p opt=(calcfc,tight,ts,noeigentest) freq=internalmodes b3lyp/6-31g(d,p)
scrf=(cpcm,solvent=dichloromethane,read) nosymm empiricaldispersion=gd3bj
int=grid=ultrafine

cyclohexylimine monoBIP oxidized, TS opt to both protons transferred

1 2
C    -0.580274     3.014188     0.382035
C    -1.970516     3.152743     0.292349
C    -2.540783     4.425858     0.199023
C    -1.659162     5.509930     0.201107
C    -0.259562     5.359421     0.286104
C     0.315730     4.090631     0.377245
C    -1.397498     0.988469     0.394211
H    -3.610356     4.570535     0.123207
H    -2.068396     6.510200     0.130520
H     0.374480     6.237932     0.272629
N    -2.444642     1.853894     0.306244
C    -2.834483    -1.079962     0.291623
C    -1.513056    -0.450932     0.418412
C    -0.369626    -1.220750     0.554325
C    -0.438255    -2.621584     0.561101
C    -1.709214    -3.240017     0.415214
C    -2.890843    -2.548056     0.286216
H     0.586265    -0.726505     0.656937
H    -1.737050    -4.320326     0.406939
C     0.798239    -3.497613     0.706909
C    -4.237188    -3.253380     0.142189
O    -3.868846    -0.372232     0.192569
N    -0.246569     1.688465     0.445025
C     1.734172     3.768781     0.431323
H     2.463730     4.577569     0.421422
N     2.086541     2.527431     0.479480
C     3.500339     2.126837     0.481900
C     4.147493     2.422894    -0.881709
C     4.297808     2.777225     1.622656
H     3.498592     1.043162     0.635197
C     5.609371     1.966953    -0.903802
H     4.092212     3.503704    -1.059146
H     3.572386     1.934939    -1.673395
C     5.756744     2.310042     1.595927
H     4.263782     3.866622     1.507337
H     3.827760     2.536678     2.580029
C     6.411383     2.596885     0.240065
H     6.057669     2.215789    -1.869894
H     5.646883     0.874947    -0.809312
H     6.314647     2.794659     2.402411
H     5.792024     1.231258     1.791783
H     7.439113     2.221948     0.230356
H     6.466720     3.681992     0.088668
H    -3.395166     1.495124     0.246009
H     0.969743     1.701293     0.474495
C     2.080667    -2.676831     0.898068
H     2.284827    -2.035155     0.036753
H     2.029288    -2.050771     1.792246
H     2.925538    -3.358749     1.013762
C     0.618200    -4.422373     1.931002
H    -0.277349    -5.040240     1.844336
H     1.481929    -5.086709     2.011689
H     0.544980    -3.838102     2.851223
C     0.941454    -4.360686    -0.567123
H     1.826635    -4.995762    -0.480583
H     0.073608    -5.007427    -0.712063
H     1.052177    -3.730966    -1.452836
C    -5.166984    -2.838680     1.304821
H    -5.370819    -1.769713     1.284375
H    -6.112160    -3.381480     1.220718
H    -4.712621    -3.091933     2.266549
C    -4.085465    -4.781287     0.182445
H    -3.457460    -5.150582    -0.632502
H    -3.656246    -5.119178     1.129599
H    -5.072431    -5.236834     0.076846
C    -4.879609    -2.869713    -1.209573
H    -5.856250    -3.353578    -1.296748
H    -5.015380    -1.792431    -1.292771
H    -4.257454    -3.210798    -2.041361

radii=bondi
dis
rep
cav













