%chk=cyclohexyl-monoBIP-TS1_rev.chk
%mem=10GB
%nprocshared=16
#p opt=(calcfc,tight,ts,noeigentest) freq=internalmodes b3lyp/6-31g(d,p)
scrf=(cpcm,solvent=dichloromethane,read) nosymm empiricaldispersion=gd3bj
int=grid=ultrafine

cyclohexylimine monoBIP oxidized, TS proton to imine, proton still on
phenol

1 2
C    -0.654595     3.085142    -0.244209
C    -2.076603     3.104538    -0.277570
C    -2.730352     4.351517    -0.229568
C    -1.933661     5.481528    -0.095895
C    -0.513360     5.431283    -0.019484
C     0.163844     4.221299    -0.104039
C    -1.371769     1.046275    -0.290004
H    -3.809618     4.428721    -0.267365
H    -2.409064     6.452297    -0.031464
H     0.040022     6.355596     0.101828
N    -2.499145     1.804514    -0.330132
C    -2.675161    -1.036842     0.038509
C    -1.393895    -0.372155    -0.131625
C    -0.206550    -1.099196     0.005484
C    -0.240977    -2.446076     0.326691
C    -1.518472    -3.089952     0.424390
C    -2.726913    -2.445053     0.309913
H     0.734147    -0.574032    -0.082084
H    -1.521945    -4.150631     0.630138
C     1.003659    -3.239143     0.699069
C    -4.065274    -3.149623     0.557327
O    -3.784131    -0.345868    -0.038133
N    -0.231909     1.803980    -0.292106
C     1.606960     3.999772    -0.034622
H     2.267935     4.844754     0.150589
N     2.046003     2.816611    -0.296706
C     3.426814     2.354333    -0.211138
C     4.483959     3.412539     0.115575
C     3.502695     1.164994     0.753077
H     3.629183     1.926916    -1.202719
C     5.885816     2.786292     0.056411
H     4.299329     3.787514     1.131142
H     4.417140     4.266017    -0.565902
C     4.892518     0.528494     0.665516
H     3.302014     1.508787     1.774545
H     2.726885     0.440126     0.486173
C     5.991886     1.551473     0.968242
H     6.634886     3.529392     0.336199
H     6.101946     2.489208    -0.981208
H     4.953179    -0.318813     1.349349
H     5.030837     0.126140    -0.346216
H     6.982175     1.098119     0.862984
H     5.894697     1.865654     2.016876
H     0.966984     1.890789    -0.260823
H    -3.549242     0.654228    -0.193915
C     2.285162    -2.411587     0.557039
H     2.444665    -2.072319    -0.470755
H     2.270422    -1.540550     1.219805
H     3.140926    -3.032497     0.834129
C     1.123806    -4.505808    -0.163705
H     2.011280    -5.060242     0.144882
H     0.264176    -5.168558    -0.049258
H     1.229627    -4.256991    -1.222708
C     0.851248    -3.644354     2.185897
H    -0.076655    -4.190452     2.370583
H     1.693879    -4.274097     2.479330
H     0.846923    -2.755293     2.821625
C    -4.994593    -2.995000    -0.667886
H    -5.802806    -3.727754    -0.603037
H    -5.436106    -1.999920    -0.710909
H    -4.447835    -3.171420    -1.597136
C    -4.722574    -2.526270     1.809639
H    -4.992199    -1.484527     1.640082
H    -5.629415    -3.081551     2.064632
H    -4.039999    -2.574361     2.661671
C    -3.861478    -4.648137     0.826355
H    -3.418712    -5.160322    -0.032196
H    -3.226868    -4.824878     1.699613
H    -4.834395    -5.102621     1.022843

radii=bondi
dis
rep
cav















