%chk=cyclohexyl-monoBIP-E2PT.chk
%mem=10GB
%nprocshared=16
#p opt=tight freq=internalmodes b3lyp/6-31g(d,p)
scrf=(cpcm,solvent=dichloromethane,read) nosymm empiricaldispersion=gd3bj
int=grid=ultrafine

cyclohexylimine monoBIP oxidized, with both protons transferred
optimization

1 2
C    -0.513930     2.704961     0.385334
C    -1.912936     2.919343     0.293368
C    -2.465422     4.194223     0.195834
C    -1.581729     5.277367     0.196980
C    -0.197532     5.094926     0.286633
C     0.369463     3.811500     0.377121
C    -1.428115     0.762632     0.419574
H    -3.535220     4.341946     0.119754
H    -1.979099     6.281759     0.125630
H     0.459200     5.957041     0.284055
N    -2.451508     1.656492     0.318208
C    -3.013967    -1.162601     0.351087
C    -1.649579    -0.662121     0.459425
C    -0.585813    -1.531064     0.580887
C    -0.778347    -2.926462     0.603227
C    -2.096756    -3.426907     0.488776
C    -3.211992    -2.618143     0.360498
H     0.413100    -1.121984     0.656674
H    -2.233663    -4.497027     0.502178
C     0.438014    -3.836748     0.722542
C    -4.618616    -3.199862     0.226432
O    -3.961328    -0.346993     0.251331
N    -0.231990     1.367788     0.463105
C     1.788971     3.651117     0.436518
H     2.418119     4.534673     0.417459
N     2.374668     2.492946     0.504975
C     3.835657     2.281119     0.518768
C     4.417967     2.473402    -0.888487
C     4.536201     3.175616     1.546628
H     3.963781     1.237941     0.814918
C     5.926541     2.202916    -0.883981
H     4.226862     3.505502    -1.204545
H     3.903892     1.813659    -1.592150
C     6.044038     2.897486     1.547824
H     4.367741     4.228115     1.294121
H     4.105157     3.000795     2.535925
C     6.649832     3.071589     0.150939
H     6.330063     2.384516    -1.883963
H     6.102032     1.144133    -0.658463
H     6.533482     3.564599     2.262439
H     6.220128     1.873117     1.897382
H     7.714731     2.823585     0.170443
H     6.572617     4.124254    -0.147015
H    -3.417620     1.348515     0.266979
H     1.756802     1.671394     0.505598
C    -5.227391    -2.777222    -1.129908
H    -6.253149    -3.149963    -1.197432
H    -5.243014    -1.694038    -1.236934
H    -4.655269    -3.203615    -1.958120
C    -5.508964    -2.690003     1.383035
H    -5.668526    -1.616230     1.311404
H    -6.476424    -3.197881     1.343937
H    -5.048461    -2.912957     2.349484
C    -4.606224    -4.735119     0.281872
H    -4.006980    -5.167609    -0.523510
H    -4.218314    -5.101767     1.235924
H    -5.629685    -5.099711     0.171465
C     0.062349    -5.323814     0.759822
H    -0.564251    -5.560966     1.623786
H    -0.467997    -5.627072    -0.146282
H     0.972640    -5.923187     0.831198
C     1.208824    -3.484749     2.012692
H     2.097160    -4.117072     2.088644
H     1.533826    -2.441843     2.014711
H     0.590609    -3.655150     2.897084
C     1.351750    -3.582931    -0.497279
H     0.828195    -3.809385    -1.429291
H     1.685855    -2.543539    -0.533829
H     2.234698    -4.224237    -0.434394

radii=bondi
dis
rep
cav









