%chk=cyclohexyl-diBIP-E3PT.chk
%mem=10GB
%nprocshared=16
#p opt=(calcfc,tight) freq=internalmodes b3lyp/6-31g(d,p)
scrf=(cpcm,solvent=dichloromethane,read) nosymm empiricaldispersion=gd3bj
int=grid=ultrafine

cyclohexylimine diBIP oxidized, all three proton transferred, optimization

1 2
 C                  1.50885900    1.14407300   -0.09306300
 C                  0.30036300    1.87424500   -0.21135100
 C                  0.28058200    3.24868800   -0.42366000
 C                  1.51391300    3.90424700   -0.52727800
 C                  2.72009500    3.20907400   -0.41496200
 C                  2.74826100    1.81747600   -0.19969700
 C                 -0.08464000   -0.28762800    0.10550000
 H                 -0.65228100    3.79140400   -0.51234200
 H                  1.53248400    4.97399900   -0.69353400
 H                  3.65885700    3.74402300   -0.49690400
 C                 -2.27344200   -1.46784600    0.22826000
 C                 -3.01586500   -2.67336100    0.32531400
 C                 -2.40335200   -3.91823100    0.46848300
 C                 -1.00933000   -3.93276200    0.50428100
 C                 -0.25230400   -2.75552300    0.39115200
 C                 -0.85993700   -1.50430000    0.25192400
 C                 -4.35657500   -0.91462400    0.12123400
 H                 -2.98163300   -4.83031600    0.54619600
 H                 -0.49335500   -4.87862500    0.61613200
 H                  0.82893800   -2.80814100    0.40711600
 N                 -0.68781600    0.92584600   -0.07403900
 C                 -6.88032600   -0.81375600   -0.11354600
 C                 -5.58148900   -0.14080800    0.02369400
 C                 -5.51237300    1.23859300    0.06586700
 C                 -6.66655200    2.03732400   -0.02426000
 C                 -7.91882100    1.39833300   -0.18355600
 C                 -8.07589200    0.02841200   -0.23354900
 H                 -4.54097000    1.70219200    0.18353300
 H                 -8.79690400    2.02045300   -0.26158700
 C                 -6.53103800    3.55332900    0.07357000
 C                 -9.44736200   -0.62025900   -0.40143100
 O                 -6.95074300   -2.07192100   -0.12482600
 N                 -3.12404200   -0.39374600    0.10665700
 N                 -4.32982600   -2.27644100    0.25047100
 N                  1.25253200   -0.18863200    0.10441400
 C                  3.99413900    1.12818900   -0.09618000
 H                  4.91675300    1.69342400   -0.17951000
 N                  4.08975700   -0.15477900    0.09033400
 C                  5.36908800   -0.88735400    0.19468900
 C                  6.18256600   -0.74854000   -1.09906200
 C                  6.16843400   -0.41562900    1.41730800
 H                  5.08685200   -1.93263100    0.33194400
 C                  7.51458300   -1.49623800   -0.98520800
 H                  6.37804400    0.31509000   -1.27782100
 H                  5.59394400   -1.11899600   -1.94200000
 C                  7.50156500   -1.16507700    1.51513300
 H                  6.35920300    0.65935500    1.31421100
 H                  5.57245800   -0.55679900    2.32250100
 C                  8.32001500   -1.01969800    0.22818700
 H                  8.08485900   -1.36016500   -1.90821400
 H                  7.31893900   -2.57105400   -0.88789300
 H                  8.06380700   -0.79404000    2.37623700
 H                  7.30502600   -2.22847500    1.69868500
 H                  9.25329400   -1.58450000    0.30712600
 H                  8.59407500    0.03364400    0.08945300
 H                 -5.18594000   -2.82186700    0.22889500
 H                 -1.70273400    1.02888100   -0.09105700
 H                  3.20544300   -0.67107900    0.16643800
 C                 -5.58343800    4.04881600   -1.03830100
 H                 -5.46294500    5.13238100   -0.95823500
 H                 -4.59510700    3.59103500   -0.95867500
 H                 -5.99203900    3.81899400   -2.02513100
 C                 -7.87784700    4.27520000   -0.06676300
 H                 -8.34622100    4.06816500   -1.03194000
 H                 -8.57372500    3.98357900    0.72386200
 H                 -7.71748800    5.35261600    0.00756800
 C                 -5.92310300    3.90169500    1.44893500
 H                 -6.56605800    3.54878600    2.25855000
 H                 -4.93601700    3.45164100    1.57348500
 H                 -5.81571700    4.98568200    1.54013800
 C                 -9.46496800   -1.45395300   -1.70159700
 H                 -8.70999600   -2.23847200   -1.67450800
 H                -10.44759400   -1.91729300   -1.82446800
 H                 -9.27892500   -0.81564700   -2.56904700
 C                -10.56712900    0.42809900   -0.48889400
 H                -10.62391700    1.03421700    0.41875100
 H                -10.43769700    1.09894000   -1.34214000
 H                -11.52292100   -0.08629300   -0.61242700
 C                 -9.75094600   -1.52979800    0.81150200
 H                -10.73638200   -1.98514300    0.68170700
 H                 -9.00653000   -2.31725700    0.91020300
 H                 -9.76820400   -0.94278100    1.73364400

radii=bondi
dis
rep
cav









