%chk=cyclohexyl-diBIP-E3PT.chk
%mem=10GB
%nprocshared=16
#p opt=(calcall,tight) freq=internalmodes b3lyp/6-31g(d,p)
scrf=(cpcm,solvent=dichloromethane,read) nosymm empiricaldispersion=gd3bj
int=grid=ultrafine

cyclohexylimine diBIP oxidized, all three proton transferred, optimization

1 2
 C                  1.53135000    1.16625200    0.05706200
 C                  0.33049800    1.91695300    0.01361900
 C                  0.32583500    3.30324500   -0.09856500
 C                  1.56588400    3.94960000   -0.17233600
 C                  2.76447300    3.23497300   -0.12875300
 C                  2.77824300    1.83070800   -0.01463900
 C                 -0.07657300   -0.25753600    0.17657900
 H                 -0.59983000    3.86378500   -0.13126400
 H                  1.59544900    5.02807000   -0.26151100
 H                  3.70768500    3.76575200   -0.18531100
 C                 -2.27493000   -1.42610700    0.23469400
 C                 -3.02429300   -2.63044200    0.28283900
 C                 -2.41972500   -3.88405800    0.37430600
 C                 -1.02598400   -3.90920000    0.40693100
 C                 -0.26206400   -2.73282900    0.34563700
 C                 -0.86182100   -1.47317000    0.25880800
 C                 -4.35383000   -0.85836800    0.14246100
 H                 -3.00422500   -4.79458800    0.41274000
 H                 -0.51587600   -4.86230500    0.47542700
 H                  0.81885800   -2.79144400    0.36249400
 N                 -0.66787800    0.97225700    0.09742800
 C                 -6.87317800   -0.77436900   -0.08663400
 C                 -5.58062400   -0.09093400    0.04401000
 C                 -5.53451700    1.29229500    0.06099800
 C                 -6.70057900    2.07050000   -0.06142900
 C                 -7.94980500    1.42382500   -0.21291400
 C                 -8.06834900    0.05297600   -0.22987500
 H                 -4.57478100    1.78333500    0.17226000
 H                 -8.84118000    2.03477400   -0.30965400
 C                 -6.61158800    3.56627800   -0.03779200
 H                 -6.07043700    3.90667900    0.84993900
 H                 -6.05371400    3.93094000   -0.90684300
 H                 -7.60049300    4.02531700   -0.04496000
 C                 -9.38545100   -0.63987500   -0.37509200
 H                 -9.35420700   -1.36930800   -1.18850800
 H                 -9.63115800   -1.19808100    0.53414300
 H                -10.18140700    0.07948900   -0.56767000
 O                 -6.97328700   -2.02961900   -0.07853400
 N                 -3.11919600   -0.34227900    0.15384100
 N                 -4.33538700   -2.22428400    0.22108900
 N                  1.26115700   -0.17422700    0.15923100
 C                  4.01718000    1.12223400    0.03417500
 H                  4.94426600    1.68443500   -0.00469500
 N                  4.10120500   -0.17157200    0.12829300
 C                  5.37288700   -0.92352000    0.17405200
 C                  6.13523100   -0.77960600   -1.15036200
 C                  6.22476300   -0.48044200    1.37075300
 H                  5.08104700   -1.96651700    0.30874800
 C                  7.46655500   -1.53703200   -1.09477500
 H                  6.32750800    0.28460500   -1.32991400
 H                  5.51433200   -1.14332400   -1.97308700
 C                  7.55275000   -1.24447600    1.40917800
 H                  6.42873500    0.59266900    1.28079000
 H                  5.66004200   -0.62971800    2.29427100
 C                  8.32200200   -1.08804900    0.09403500
 H                  8.00495200   -1.38882800   -2.03486200
 H                  7.26687300   -2.61198800   -1.00878600
 H                  8.14947000   -0.88716300    2.25317200
 H                  7.35361600   -2.30816400    1.58806600
 H                  9.25105300   -1.66435900    0.12824500
 H                  8.60260300   -0.03581500   -0.03867000
 H                 -5.19635300   -2.76319700    0.18979700
 H                 -1.68163600    1.08548300    0.08965400
 H                  3.21216000   -0.68417000    0.16424100

radii=bondi
dis
rep
cav







