%chk=cyclohexyl-triBIP-E3PT.chk
%mem=10GB
%nprocshared=16
#p opt=tight freq=internalmodes b3lyp/6-31g(d,p)
scrf=(cpcm,solvent=dichloromethane,read) nosymm empiricaldispersion=gd3bj
int=grid=ultrafine

cyclohexylimine triBIP oxidized, first three protons transferred
optimization

1 2
C     1.596536     0.409325     1.107915
C     0.512513     1.270575     0.806546
C     0.669602     2.646846     0.674798
C     1.956833     3.159702     0.854289
C     3.046402     2.333488     1.154540
C     2.891325     0.945378     1.286021
C    -0.144983    -0.846332     0.931189
H    -0.168067     3.291836     0.440843
H     2.119135     4.226003     0.757651
H     4.023834     2.781700     1.282101
C    -2.431903    -1.780219     0.602381
C    -3.311364    -2.894303     0.562873
C    -2.877321    -4.198679     0.798545
C    -1.523295    -4.366410     1.082825
C    -0.632158    -3.280615     1.125626
C    -1.060799    -1.971543     0.892163
C    -4.386471    -1.002861     0.117645
H    -3.558906    -5.039178     0.764048
H    -1.141423    -5.362195     1.273167
H     0.414116    -3.451793     1.344681
N    -0.575294     0.432823     0.705440
C    -6.821986    -0.639363    -0.472993
C    -5.474724    -0.109438    -0.225118
C    -5.225301     1.253087    -0.322134
C    -6.236108     2.154369    -0.668622
C    -7.539063     1.645395    -0.932307
C    -7.870342     0.314625    -0.855918
H    -4.222023     1.602144    -0.123663
H    -8.303788     2.357006    -1.209823
C    -5.994130     3.655679    -0.774989
C    -9.277937    -0.191981    -1.165245
O    -7.056781    -1.872289    -0.363379
N    -3.118646    -0.622202     0.325139
N    -4.536867    -2.356437     0.255044
N     1.167087    -0.897630     1.179074
C     3.981818     0.054196     1.591617
N     3.842619    -1.285280     1.689921
N     5.276655     0.354080     1.819952
C     7.337154    -0.998425     2.363971
C     7.731822    -2.325548     2.557660
C     6.817846    -3.391551     2.473737
C     5.469542    -3.188983     2.186274
C     5.066008    -1.868357     1.986021
C     5.980648    -0.808118     2.068399
H     8.771348    -2.531728     2.785534
H     7.174932    -4.400847     2.636374
H     4.768680    -4.011011     2.124231
C     8.258910     0.134520     2.472607
H     9.298519    -0.115339     2.695666
N     7.836485     1.333446     2.323783
C     8.747704     2.470194     2.445384
C    10.221561     2.162277     2.729495
C     8.606114     3.341797     1.186590
H     8.357426     3.059954     3.287040
C    11.028445     3.459469     2.866185
H    10.629885     1.562489     1.906105
H    10.315756     1.564212     3.641694
C     9.416257     4.635447     1.314321
H     8.962252     2.764016     0.325111
H     7.546875     3.558148     1.016542
C    10.888883     4.342637     1.621552
H    12.080895     3.223375     3.050081
H    10.670743     4.012603     3.743387
H     9.326874     5.222590     0.395031
H     8.993102     5.243913     2.123369
H    11.441785     5.277572     1.756286
H    11.338204     3.825646     0.764406
H     2.923611    -1.718731     1.555333
H    -1.549383     0.648876     0.495146
H    -5.441314    -2.797775     0.118639
H     5.756071     1.253414     1.842896
C    -9.215986    -1.191455    -2.343220
H    -8.618047    -2.063361    -2.082391
H   -10.227799    -1.520817    -2.596310
H    -8.781105    -0.715536    -3.226401
C   -10.220014     0.953842    -1.563618
H   -10.328394     1.689872    -0.762048
H    -9.873452     1.473421    -2.460916
H   -11.208743     0.541198    -1.775387
C    -9.871232    -0.884159     0.081859
H    -9.263672    -1.735191     0.385830
H    -9.933123    -0.181336     0.917147
H   -10.882559    -1.234505    -0.142751
C    -6.306379     4.109621    -2.217967
H    -7.337216     3.882245    -2.498543
H    -6.163684     5.190228    -2.301258
H    -5.640253     3.619413    -2.931969
C    -6.937740     4.387973     0.204387
H    -6.789072     5.467474     0.115965
H    -7.987368     4.173826    -0.007955
H    -6.729379     4.094687     1.236027
C    -4.546379     4.038264    -0.437361
H    -4.285162     3.754294     0.585361
H    -3.834639     3.565731    -1.119318
H    -4.428915     5.120398    -0.527469

radii=bondi
dis
rep
cav









