%chk=cyclohexyl-triBIP-E3PT.chk
%mem=10GB
%nprocshared=16
#p opt=tight freq=internalmodes b3lyp/6-31g(d,p)
scrf=(cpcm,solvent=dichloromethane,read) nosymm empiricaldispersion=gd3bj
int=grid=ultrafine

cyclohexylimine triBIP oxidized, first three protons transferred
optimization

1 2
 C                  1.62401700    0.47854500    0.98163000
 C                  0.54499100    1.34965800    0.69124200
 C                  0.71479700    2.72509000    0.56629600
 C                  2.00775900    3.22513700    0.74147700
 C                  3.09159400    2.38848000    1.03322900
 C                  2.92442800    1.00137800    1.15846300
 C                 -0.12889000   -0.76264100    0.81354700
 H                 -0.11645300    3.38111100    0.34217500
 H                  2.17872300    4.29049500    0.64873400
 H                  4.07376800    2.82698500    1.15699600
 C                 -2.42668900   -1.69270900    0.53276500
 C                 -3.30615200   -2.80773200    0.53280800
 C                 -2.86858600   -4.10941100    0.77616300
 C                 -1.50822200   -4.27598800    1.02680300
 C                 -0.61683000   -3.19017900    1.03483300
 C                 -1.05004300   -1.88338200    0.79400300
 C                 -4.39305300   -0.92457800    0.08767600
 H                 -3.55313900   -4.94827900    0.77242700
 H                 -1.12238200   -5.26931800    1.22186300
 H                  0.43373100   -3.35844600    1.23526600
 N                 -0.55092400    0.52032300    0.59431100
 C                 -6.85251700   -0.61111200   -0.40880500
 C                 -5.50494800   -0.05409200   -0.23803300
 C                 -5.30140700    1.30919900   -0.39189600
 C                 -6.35470200    2.17629800   -0.72102900
 C                 -7.66130700    1.64928200   -0.88898600
 C                 -7.93385100    0.31114000   -0.74806800
 H                 -4.30271300    1.70712300   -0.25666200
 H                 -8.46744100    2.33287900   -1.13579300
 C                 -6.10649100    3.63941400   -0.92375000
 H                 -5.19430500    3.96042300   -0.41900400
 H                 -5.99169600    3.85616200   -1.99250600
 H                 -6.94824100    4.23485100   -0.56358700
 C                 -9.30540900   -0.26019100   -0.91975000
 H                 -9.32355800   -0.98853500   -1.73632300
 H                 -9.61558700   -0.79732600   -0.01892300
 H                -10.02914200    0.52675900   -1.13110100
 O                 -7.09605500   -1.83895000   -0.27188300
 N                 -3.12159700   -0.53776800    0.25462400
 N                 -4.53916000   -2.27566800    0.25014300
 N                  1.18460000   -0.82482400    1.04878100
 C                  4.00642000    0.09655800    1.45540700
 N                  3.85474800   -1.24343000    1.52204200
 N                  5.30256100    0.37956200    1.69925600
 C                  7.34540100   -1.00527000    2.22931900
 C                  7.72590100   -2.34003000    2.39730200
 C                  6.80336600   -3.39530800    2.28090000
 C                  5.45956800   -3.17289600    1.98741800
 C                  5.07060700   -1.84443200    1.81154300
 C                  5.99420000   -0.79496100    1.92443500
 H                  8.76026500   -2.56103700    2.63495700
 H                  7.14886900   -4.41143000    2.42439000
 H                  4.75085100   -3.98615400    1.90289300
 C                  8.27228600    0.11515800    2.39890500
 H                  9.30559100   -0.15480000    2.62681800
 N                  7.86272100    1.32460300    2.30751800
 C                  8.78767400    2.43831100    2.52144900
 C                 10.23598400    2.08299900    2.87263700
 C                  8.73311300    3.36464800    1.29526200
 H                  8.36536300    3.00230200    3.36570000
 C                 11.06878000    3.34909000    3.10381600
 H                 10.67381800    1.50394100    2.05036100
 H                 10.26357200    1.44674000    3.76258700
 C                  9.57067700    4.62804200    1.51921300
 H                  9.11516300    2.81214400    0.42801900
 H                  7.69059900    3.62042400    1.08281000
 C                 11.01730500    4.28594500    1.89236100
 H                 12.10329100    3.07395700    3.33057500
 H                 10.68343000    3.87808100    3.98447700
 H                  9.54624000    5.25566100    0.62357700
 H                  9.12124700    5.21498900    2.32977800
 H                 11.57916600    5.20176900    2.10033800
 H                 11.50487200    3.79722400    1.03969500
 H                  2.93000100   -1.66347100    1.38213800
 H                 -1.52468500    0.74649000    0.39678000
 H                 -5.44836200   -2.71886700    0.14837000
 H                  5.78590300    1.27480500    1.75884200

radii=bondi
dis
rep
cav







