%chk=cyclohexyl-triBIP-E0PT.chk
%mem=10GB
%nprocshared=16
#p opt=tight freq=internalmodes b3lyp/6-31g(d,p)
scrf=(cpcm,solvent=dichloromethane,read) nosymm empiricaldispersion=gd3bj
int=grid=ultrafine

cyclohexylimine triBIP oxidized, no proton transfer optimization

1 2
C     1.686001     0.361766     0.917068
C     0.587249     1.199035     0.612064
C     0.781247     2.577316     0.459941
C     2.073874     3.070052     0.620949
C     3.156502     2.228363     0.928887
C     2.992169     0.846889     1.086223
C    -0.175822    -0.819539     0.760372
H    -0.048981     3.231258     0.222767
H     2.256540     4.131797     0.505494
H     4.144149     2.661031     1.036242
C    -2.457468    -1.726371     0.511491
C    -3.422333    -2.771596     0.513723
C    -3.031633    -4.093696     0.780877
C    -1.686896    -4.314531     1.034144
C    -0.734357    -3.268718     1.029258
C    -1.092585    -1.946302     0.771597
C    -4.454523    -0.910689     0.049001
H    -3.755300    -4.898680     0.786909
H    -1.343563    -5.319450     1.245463
H     0.301582    -3.509219     1.234463
N    -0.562639     0.432344     0.522146
C    -6.865166    -0.574489    -0.430359
C    -5.526326    -0.015233    -0.283237
C    -5.326243     1.348930    -0.466740
C    -6.392156     2.185932    -0.792463
C    -7.695137     1.612189    -0.928501
C    -7.976946     0.278639    -0.760893
H    -4.329452     1.752434    -0.360151
H    -8.504781     2.280429    -1.180304
C    -6.230035     3.680572    -1.012562
C    -9.389126    -0.290109    -0.910902
O    -7.061052    -1.851555    -0.263359
H    -6.149246    -2.309662    -0.030925
N    -3.137667    -0.578511     0.217579
N    -4.646340    -2.227924     0.225363
H    -2.662628     0.320857     0.161324
N     1.170717    -0.908587     1.001914
H     1.748703    -1.719982     1.192285
C     4.070956    -0.070389     1.412816
N     3.935708    -1.395029     1.455329
N     5.351145     0.327497     1.712414
C     7.428831    -0.969097     2.330563
C     7.853076    -2.290986     2.508242
C     6.979724    -3.379391     2.334311
C     5.644064    -3.196504     1.979762
C     5.188531    -1.884328     1.795461
C     6.084170    -0.804009     1.965935
H     8.884109    -2.473741     2.791678
H     7.357049    -4.383969     2.484432
H     4.973664    -4.038511     1.856267
H     5.750770     1.255510     1.797538
C     8.320414     0.171535     2.531393
H     9.352001    -0.078246     2.792867
N     7.901059     1.376423     2.414530
C     8.814560     2.500514     2.623054
C    10.267969     2.166128     2.976737
C     8.752162     3.410806     1.385035
H     8.388491     3.072326     3.460427
C    11.090846     3.442549     3.185445
H    10.708469     1.577678     2.162482
H    10.304672     1.543799     3.876332
C     9.578407     4.685122     1.586062
H     9.138053     2.849257     0.525232
H     7.706631     3.651870     1.169921
C    11.028827     4.359774     1.959504
H    12.128591     3.180368     3.413921
H    10.703032     3.982543     4.058348
H     9.546555     5.298524     0.680340
H     9.126968     5.281375     2.388803
H    11.586157     5.282383     2.149858
H    11.515949     3.860104     1.112774
C    -6.685340     4.022194    -2.450810
H    -7.722959     3.735241    -2.632285
H    -6.600627     5.101276    -2.601965
H    -6.053678     3.519527    -3.186571
C    -7.124901     4.433951    -0.000992
H    -7.019168     5.509071    -0.165140
H    -8.179856     4.176736    -0.115225
H    -6.823112     4.211313     1.024923
C    -4.779996     4.146399    -0.831324
H    -4.418786     3.956854     0.182562
H    -4.106428     3.654352    -1.537276
H    -4.723369     5.221834    -1.010525
C    -9.415462    -1.329562    -2.052991
H    -8.729255    -2.154068    -1.866189
H   -10.427022    -1.733102    -2.145590
H    -9.148064    -0.860105    -3.003190
C   -10.395504     0.817714    -1.255141
H   -10.440313     1.579450    -0.472225
H   -10.149573     1.308112    -2.200426
H   -11.389647     0.376990    -1.352644
C    -9.834123    -0.943752     0.416179
H    -9.189535    -1.775776     0.697000
H    -9.828940    -0.208309     1.225038
H   -10.853709    -1.320333     0.303804

radii=bondi
dis
rep
cav







