%chk=cyclohexyl-monoBIP-E1PT_rev.chk
%mem=10GB
%nprocshared=16
#p opt=(calcfc,tight) freq=internalmodes b3lyp/6-31g(d,p)
scrf=(cpcm,solvent=dichloromethane,read) nosymm 
empiricaldispersion=gd3bj int=grid=ultrafine

cyclohexylimine monoBIP oxidized, with proton on imine and phenol
optimization

1 2
C    -0.475830     2.660309     0.239111
C    -1.898492     2.859671     0.151002
C    -2.441587     4.149591     0.052158
C    -1.563302     5.228703     0.051191
C    -0.169729     5.050751     0.149701
C     0.405059     3.777419     0.245675
C    -1.434639     0.757909     0.275754
H    -3.511837     4.298193    -0.021320
H    -1.956833     6.234822    -0.021812
H     0.477169     5.920106     0.152952
N    -2.477134     1.630498     0.179988
C    -3.052119    -1.137378     0.344324
C    -1.674778    -0.656449     0.334859
C    -0.629315    -1.576211     0.382838
C    -0.880069    -2.942582     0.461191
C    -2.236264    -3.383402     0.495832
C    -3.326760    -2.543248     0.444755
H     0.383414    -1.196590     0.355920
H    -2.414068    -4.444184     0.566258
C     0.283151    -3.928759     0.481234
C    -4.764980    -3.066487     0.488231
O    -4.039543    -0.286907     0.258289
N    -0.196980     1.341382     0.314422
C     1.820502     3.626182     0.356121
H     2.448154     4.510714     0.372149
N     2.400075     2.466114     0.443801
C     3.856012     2.243397     0.536945
C     4.521668     2.459765    -0.829269
C     4.502018     3.110368     1.622930
H     3.959414     1.193585     0.818923
C     6.026319     2.181397    -0.743404
H     4.353068     3.498870    -1.134939
H     4.049262     1.816335    -1.576044
C     6.005293     2.819137     1.703373
H     4.354938     4.169471     1.384457
H     4.014648     2.916809     2.582096
C     6.691658     3.025036     0.349136
H     6.486360     2.380108    -1.715291
H     6.182576     1.117447    -0.528735
H     6.457350     3.459586     2.465815
H     6.151980     1.782773     2.030790
H     7.754412     2.776918     0.424513
H     6.630072     4.084337     0.071369
H     1.777796     1.648783     0.409670
H    -3.635002     0.689358     0.201863
C     1.254150    -3.551893     1.619559
H     2.105939    -4.236720     1.612399
H     1.634842    -2.534991     1.505789
H     0.760547    -3.627489     2.591423
C     1.019019    -3.821277    -0.873064
H     1.396906    -2.810124    -1.037096
H     1.865948    -4.512621    -0.886155
H     0.351765    -4.078025    -1.699436
C    -0.171302    -5.379839     0.687327
H    -0.701418    -5.505373     1.635020
H    -0.821966    -5.722330    -0.121130
H     0.706339    -6.029285     0.705684
C    -4.795725    -4.597584     0.615293
H    -4.321409    -5.088692    -0.238642
H    -4.297576    -4.935772     1.527647
H    -5.835445    -4.928029     0.657348
C    -5.500335    -2.475357     1.711707
H    -4.989508    -2.751298     2.637909
H    -5.561874    -1.389119     1.657606
H    -6.516226    -2.877361     1.750010
C    -5.503670    -2.678572    -0.811889
H    -5.588092    -1.598038    -0.920038
H    -4.977769    -3.075637    -1.683886
H    -6.510547    -3.104133    -0.796025

radii=bondi
dis
rep
cav











