%chk=cyclohexyl-monoBIP-E1PT_rev.chk
%mem=10GB
%nprocshared=16
#p opt=(calcfc,tight) freq=internalmodes b3lyp/6-31g(d,p)
scrf=(cpcm,solvent=dichloromethane,read) nosymm 
empiricaldispersion=gd3bj int=grid=ultrafine

cyclohexylimine monoBIP oxidized, with proton on imine and phenol
optimization

1 2
 C                 -0.45424900    2.58471000    0.25188000
 C                 -1.89000400    2.74007500    0.22484800
 C                 -2.47502200    4.01570000    0.15518500
 C                 -1.63093500    5.11909200    0.12405400
 C                 -0.22707300    4.98329000    0.15743700
 C                  0.39108400    3.72930000    0.21887600
 C                 -1.35661500    0.66421800    0.32509000
 H                 -3.55148000    4.13248400    0.12882600
 H                 -2.05588200    6.11375700    0.07445200
 H                  0.39127000    5.87302900    0.13680800
 N                 -2.43372800    1.49999000    0.27285700
 C                 -2.95433900   -1.17151900    0.39477900
 C                 -1.57995000   -0.74008400    0.38343500
 C                 -0.56081400   -1.69614700    0.42439700
 C                 -0.86533800   -3.05061500    0.48439800
 C                 -2.23813800   -3.45322300    0.50837800
 C                 -3.28214800   -2.55764600    0.46591100
 H                  0.46808900   -1.35913100    0.40921300
 H                 -2.45785700   -4.51396500    0.56204600
 C                  0.21674900   -4.08736900    0.53121600
 C                 -4.72333300   -2.97045400    0.47702900
 O                 -3.91995100   -0.28621400    0.33565900
 N                 -0.13137100    1.27799900    0.31384600
 C                  1.81432000    3.61993400    0.26005000
 H                  2.41636400    4.52195700    0.24844200
 N                  2.43083100    2.47767800    0.31956600
 C                  3.89535400    2.30996000    0.38746900
 C                  4.56190700    2.72081900   -0.93277000
 C                  4.48961100    3.07740500    1.57514800
 H                  4.04699600    1.23980800    0.54186400
 C                  6.07616500    2.49439000   -0.85068600
 H                  4.35374900    3.78115400   -1.11689800
 H                  4.12728000    2.15177800   -1.75841900
 C                  6.00363800    2.84931200    1.65089900
 H                  4.29329800    4.14768600    1.44222000
 H                  3.99560000    2.76525600    2.49883500
 C                  6.69259600    3.23923100    0.33802300
 H                  6.54579000    2.80642900   -1.78751200
 H                  6.26817200    1.41990200   -0.74268500
 H                  6.41503900    3.42237500    2.48647400
 H                  6.19769200    1.79124900    1.86396000
 H                  7.76510300    3.03282400    0.39898900
 H                  6.58291300    4.31977500    0.18286700
 H                  1.83290200    1.64152000    0.32799300
 H                 -3.47965800    0.64996100    0.29863100
 C                  0.99333324   -3.99528263    1.85787987
 H                  1.41293389   -4.95117350    2.09263070
 H                  1.77862361   -3.27482016    1.76220927
 H                  0.32801673   -3.69587217    2.64057221
 C                  1.23854097   -3.86943647   -0.60017543
 H                  1.90736716   -3.07933154   -0.32942509
 H                  1.79498092   -4.76989008   -0.75656555
 H                  0.72322088   -3.60766717   -1.50063200
 C                 -0.36315172   -5.50904254    0.41222227
 H                 -1.00144065   -5.70501852    1.24833270
 H                 -0.92703686   -5.58957150   -0.49356392
 H                  0.43610453   -6.22032335    0.39922060
 C                 -4.84549374   -4.50076207    0.59882376
 H                 -4.37745339   -4.96416397   -0.24444187
 H                 -4.36452043   -4.82656702    1.49738695
 H                 -5.87938533   -4.77482077    0.62814979
 C                 -5.47581009   -2.31797798    1.65161543
 H                 -4.78588540   -2.09912164    2.43965466
 H                 -5.93759745   -1.41155061    1.31988985
 H                 -6.22677221   -2.98991817    2.01141018
 C                 -5.43138588   -2.51877665   -0.81380356
 H                 -5.84847071   -1.54404256   -0.66946474
 H                 -4.72459585   -2.48899388   -1.61658675
 H                 -6.21304970   -3.20946591   -1.05223598

radii=bondi
dis
rep
cav











