%chk=cyclohexyl-monoBIP-TS2_rev.chk
%mem=10GB
%nprocshared=16
#p opt=(calcfc,tight,ts,noeigentest) freq=internalmodes b3lyp/6-31g(d,p)
scrf=(cpcm,solvent=dichloromethane,read) nosymm 
empiricaldispersion=gd3bj int=grid=ultrafine

cyclohexylimine monoBIP oxidized, optimize to transition state of first
proton transferred

1 2
 C                 -0.42419100    2.67174000    0.27773200
 C                 -1.83568200    2.79278600    0.23762000
 C                 -2.43393200    4.05878100    0.14154700
 C                 -1.58508000    5.15590000    0.09356900
 C                 -0.17867900    5.02067400    0.13607900
 C                  0.44283200    3.77616900    0.22938600
 C                 -1.33668500    0.66603600    0.36926400
 H                 -3.51006600    4.16886900    0.10552300
 H                 -2.00792600    6.15043800    0.02130800
 H                  0.43820000    5.91088900    0.09588900
 N                 -2.36559100    1.52550800    0.29775000
 C                 -2.95818400   -1.18914800    0.41953000
 C                 -1.56604400   -0.75274500    0.42968000
 C                 -0.55905600   -1.70280700    0.47879500
 C                 -0.86680700   -3.07204700    0.52101300
 C                 -2.23064000   -3.48478300    0.52576500
 C                 -3.27348400   -2.59449300    0.48095200
 H                  0.47865100   -1.39238600    0.47916500
 H                 -2.44452100   -4.54683600    0.56929100
 C                  0.21415300   -4.10109200    0.53956400
 C                 -4.70983400   -3.00981100    0.48526000
 O                 -3.92255000   -0.33374200    0.35053100
 N                 -0.04176810    1.37848795    0.36166845
 H                  1.31235115    1.59084831    0.38055655
 C                  1.89445000    3.60335200    0.27084400
 H                  2.49113600    4.51934300    0.21673600
 N                  2.30150610    2.38779005    0.36581755
 C                  3.76569210    2.26830705    0.40533555
 C                  4.41443310    2.69491705   -0.92192645
 C                  4.39559310    3.03243005    1.58144755
 H                  3.97548810    1.20273005    0.55061155
 C                  5.93004010    2.47003805   -0.87863245
 H                  4.20120710    3.75745805   -1.08922145
 H                  3.96128810    2.13861605   -1.74792145
 C                  5.90999810    2.80109705    1.62865855
 H                  4.19807810    4.10389605    1.45798855
 H                  3.91964010    2.72242105    2.51632155
 C                  6.57071110    3.20382705    0.30488755
 H                  6.38471710    2.79095805   -1.82061745
 H                  6.12658810    1.39453805   -0.78435145
 H                  6.34520010    3.36198505    2.46137355
 H                  6.10675710    1.73945105    1.82366055
 H                  7.64583810    3.00346105    0.33957155
 H                  6.45294410    4.28535305    0.16180755
 H                 -3.45550900    0.69606700    0.30997700
 C                 -5.46556914   -2.35150065    1.65448704
 H                 -5.95483332   -1.46490733    1.30883859
 H                 -6.19439384   -3.03469712    2.03783693
 H                 -4.77256870   -2.09750022    2.42917032
 C                 -5.41213742   -2.56040817   -0.80950137
 H                 -6.15846656   -3.27854168   -1.07815929
 H                 -5.87373401   -1.60790933   -0.65273861
 H                 -4.69217552   -2.48252620   -1.59721277
 C                 -4.82842355   -4.54011340    0.61060385
 H                 -4.34782557   -5.00471795   -0.22490091
 H                 -4.35816024   -4.86128469    1.51647438
 H                 -5.86168149   -4.81759917    0.62732759
 C                 -0.03803048   -5.13861041    1.64932029
 H                 -0.75474643   -5.85692227    1.30984079
 H                  0.87906992   -5.63531962    1.88829061
 H                 -0.41363328   -4.64446220    2.52089363
 C                  1.60279210   -3.46602211    0.73948320
 H                  1.83367992   -2.84216050   -0.09860242
 H                  1.60031775   -2.87690384    1.63269848
 H                  2.33921191   -4.23775237    0.82325837
 C                  0.21766710   -4.87722398   -0.79055133
 H                  1.11285032   -5.45902493   -0.86164749
 H                 -0.63285785   -5.52540621   -0.82752561
 H                  0.17545045   -4.18650107   -1.60665158

radii=bondi
dis
rep
cav













