%chk=amide-monoBIP-E0PT.chk
%mem=10GB
%nprocshared=16
#p opt=tight freq=internalmodes b3lyp/6-31g(d,p)
scrf=(cpcm,solvent=dichloromethane,read) nosymm empiricaldispersion=gd3bj
int=grid=ultrafine

Simple amide-monoBIP E0PT optimization

1 2
 C                 -0.47101300    2.71923000    0.40446700
 C                 -1.87020200    2.90641700    0.29602700
 C                 -2.39372300    4.19648100    0.18485800
 C                 -1.49570400    5.26415400    0.18402100
 C                 -0.11161400    5.06541800    0.29746300
 C                  0.44069200    3.78315000    0.41827900
 C                 -1.52020300    0.76160200    0.41503300
 H                 -3.46102300    4.35680700    0.09479900
 H                 -1.87361100    6.27539800    0.09186100
 H                  0.53534800    5.93454100    0.27542100
 N                 -2.49306100    1.66837300    0.30922300
 C                 -3.06455800   -1.18088300    0.35900500
 C                 -1.74047800   -0.67475900    0.43791800
 C                 -0.65652700   -1.56091400    0.51211900
 C                 -0.84270900   -2.93753300    0.51288100
 C                 -2.16257200   -3.40760300    0.44161100
 C                 -3.28426500   -2.57753700    0.36717800
 H                  0.34940700   -1.16035400    0.56412000
 H                 -2.32435800   -4.47419100    0.44304300
 C                  0.37206700   -3.87048500    0.56237700
 C                 -4.70346600   -3.16413300    0.29438900
 O                 -4.12050900   -0.34036300    0.27415600
 H                 -3.77350800    0.59766900    0.26836000
 N                 -0.28703700    1.35961500    0.48075700
 H                  0.63121700    0.93966500    0.53702800
 C                  1.88892400    3.47295900    0.55145200
 C                  1.23621100   -3.63025800   -0.69243700
 H                  1.56053000   -2.58853100   -0.75195800
 H                  2.12812700   -4.26345400   -0.66759900
 H                  0.67615200   -3.86408600   -1.60184800
 C                  1.21288900   -3.55726600    1.81579500
 H                  0.63448600   -3.72986200    2.72740200
 H                  2.09821800   -4.19914600    1.84572700
 H                  1.55025800   -2.51778900    1.81809800
 C                 -0.03294400   -5.35011400    0.60228300
 H                 -0.63063600   -5.58104000    1.48827400
 H                 -0.60725100   -5.63520500   -0.28354500
 H                  0.86466700   -5.97272300    0.63262500
 C                 -5.38227100   -2.73630500   -1.02397400
 H                 -6.39428000   -3.14972300   -1.07085800
 H                 -5.44611800   -1.65203100   -1.10504000
 H                 -4.82102600   -3.11554700   -1.88264400
 C                 -5.53611000   -2.67715400    1.49978700
 H                 -5.63765600   -1.59272300    1.50069200
 H                 -6.53567700   -3.12085300    1.46518600
 H                 -5.06165300   -2.98069500    2.43713200
 C                 -4.68746100   -4.70127900    0.33062900
 H                 -4.13520900   -5.12120300   -0.51425100
 H                 -4.24105000   -5.08131600    1.25341000
 H                 -5.71490100   -5.06903100    0.27688800
 O                  2.28950400    2.29655200    0.52880500
 N                  2.74683800    4.50929100    0.68173500
 H                  2.43254200    5.44643400    0.87238200
 H                  3.71635200    4.29326800    0.85679700

radii=bondi
dis
rep
cav



