%chk=cyclohexyl-monoBIP-2PT.chk
%mem=10GB
%nprocshared=16
#p opt=tight freq=internalmodes b3lyp/6-31g(d,p)
scrf=(cpcm,solvent=dichloromethane,read) nosymm empiricaldispersion=gd3bj
int=grid=ultrafine

cyclohexylimine monoBIP neutral, with both protons transferred
optimization

0 1
C    -0.509396     2.727036     0.360186
C    -1.915228     2.930209     0.249575
C    -2.465362     4.198014     0.142591
C    -1.585989     5.299051     0.151673
C    -0.210995     5.130338     0.257358
C     0.364810     3.840965     0.358093
C    -1.416114     0.768773     0.394832
H    -3.535050     4.342859     0.053096
H    -1.995619     6.298698     0.073640
H     0.443054     5.994817     0.260002
N    -2.444457     1.660279     0.275079
C    -3.022937    -1.131228     0.337712
C    -1.660995    -0.645563     0.448227
C    -0.572147    -1.525483     0.601218
C    -0.748882    -2.895750     0.661377
C    -2.074895    -3.375253     0.544321
C    -3.191873    -2.568150     0.381681
H     0.420646    -1.094159     0.675491
H    -2.227025    -4.444450     0.584116
C     0.460419    -3.823589     0.837928
C    -4.595448    -3.174275     0.238933
O    -4.020401    -0.320303     0.203979
N    -0.213966     1.398222     0.448925
C     1.774601     3.675968     0.429445
H     2.413283     4.552681     0.417772
N     2.351773     2.507577     0.499949
C     3.806371     2.274482     0.502626
C     4.359332     2.324779    -0.930673
C     4.547170     3.249756     1.422802
H     3.929352     1.260975     0.892107
C     5.867147     2.051225    -0.938261
H     4.157014     3.320357    -1.342321
H     3.829939     1.600067    -1.555050
C     6.052116     2.958485     1.411699
H     4.386678     4.275722     1.074520
H     4.139900     3.179601     2.434777
C     6.618154     3.013179    -0.011652
H     6.246680     2.125362    -1.961132
H     6.045218     1.020681    -0.608540
H     6.563996     3.677049     2.058094
H     6.233142     1.963947     1.836729
H     7.685406     2.773635    -0.003214
H     6.524577     4.035788    -0.397644
H    -3.392280     1.235597     0.212029
H     1.717257     1.696438     0.488626
C    -5.514562    -2.649679     1.361602
H    -5.593906    -1.565109     1.313443
H    -6.514103    -3.086049     1.265014
H    -5.115962    -2.927380     2.342198
C    -4.581839    -4.708562     0.328331
H    -5.602729    -5.084193     0.218143
H    -3.972450    -5.157420    -0.460969
H    -4.199695    -5.053943     1.293035
C    -5.184730    -2.788374    -1.134484
H    -5.198786    -1.705499    -1.252115
H    -4.585124    -3.218401    -1.942295
H    -6.206570    -3.169908    -1.229522
C     1.190758    -3.469640     2.148615
H     2.061953    -4.116814     2.289364
H     1.535621    -2.432664     2.138915
H     0.525969    -3.595555     3.007340
C     1.430544    -3.629669    -0.345090
H     1.768563    -2.592363    -0.409584
H     2.311642    -4.268732    -0.230398
H     0.942557    -3.886520    -1.289502
C     0.058944    -5.304805     0.893188
H    -0.601161    -5.513907     1.739415
H    -0.452433    -5.615289    -0.021745
H     0.953670    -5.922940     1.003423

radii=bondi
dis
rep
cav









